IMB01J2_Cenarios/UConBTTD.dss
! UNIDADES CONSUMIDORAS DE BAIXA TENSAO NO TRANSFORMADOR DE DISTRIBUICAO
! Tranformador de Distribuicao: 500594
New Load.1567 Bus1=106977B1500594.3.1.0 Phases=2 model=8 ZIPV=[0.5 0 0.5 1 0 0] Kv=0.220 kW=13.92 PF= 0.92 conn=wye
! Tranformador de Distribuicao: 500594
New Load.796015 Bus1=106977B1500594.2.3.0 Phases=2 model=8 ZIPV=[0.5 0 0.5 1 0 0] Kv=0.220 kW=4.0 PF= 0.92 conn=wye
! Tranformador de Distribuicao: 500594
New Load.840426 Bus1=106977B1500594.1.2.3.0 Phases=3 model=8 ZIPV=[0.5 0 0.5 1 0 0] Kv=0.220 kW=15.0 PF= 0.92 conn=wye
! Tranformador de Distribuicao: 500594
New Load.1289904 Bus1=106977B1500594.1.2.3.0 Phases=3 model=8 ZIPV=[0.5 0 0.5 1 0 0] Kv=0.220 kW=14.42 PF= 0.92 conn=wye
! Tranformador de Distribuicao: 500594
New Load.1870882 Bus1=106977B1500594.3.1.0 Phases=2 model=8 ZIPV=[0.5 0 0.5 1 0 0] Kv=0.220 kW=6.88 PF= 0.92 conn=wye
! Tranformador de Distribuicao: 500594
New Load.1895851 Bus1=106977B1500594.1.2.3.0 Phases=3 model=8 ZIPV=[0.5 0 0.5 1 0 0] Kv=0.220 kW=9.44 PF= 0.92 conn=wye
! Tranformador de Distribuicao: 500594
New Load.2570625 Bus1=106977B1500594.1.2.3.0 Phases=3 model=8 ZIPV=[0.5 0 0.5 1 0 0] Kv=0.220 kW=15.9 PF= 0.92 conn=wye
! Tranformador de Distribuicao: 500594
New Load.2597861 Bus1=106977B1500594.1.2.3.0 Phases=3 model=8 ZIPV=[0.5 0 0.5 1 0 0] Kv=0.220 kW=10.85 PF= 0.92 conn=wye
! Tranformador de Distribuicao: 500594
New Load.2811318 Bus1=106977B1500594.1.2.3.0 Phases=3 model=8 ZIPV=[0.5 0 0.5 1 0 0] Kv=0.220 kW=47.63 PF= 0.92 conn=wye
! Tranformador de Distribuicao: 500594
New Load.3008237 Bus1=106977B1500594.1.2.3.0 Phases=3 model=8 ZIPV=[0.5 0 0.5 1 0 0] Kv=0.220 kW=12.0 PF= 0.92 conn=wye
! Tranformador de Distribuicao: 500594
New Load.3171191 Bus1=106977B1500594.1.2.3.0 Phases=3 model=8 ZIPV=[0.5 0 0.5 1 0 0] Kv=0.220 kW=47.75 PF= 0.92 conn=wye
! Tranformador de Distribuicao: 500594
New Load.3329393 Bus1=106977B1500594.1.2.3.0 Phases=3 model=8 ZIPV=[0.5 0 0.5 1 0 0] Kv=0.220 kW=5.0 PF= 0.92 conn=wye
! Tranformador de Distribuicao: 500594
New Load.3366370 Bus1=106977B1500594.1.2.3.0 Phases=3 model=8 ZIPV=[0.5 0 0.5 1 0 0] Kv=0.220 kW=14.38 PF= 0.92 conn=wye
! Tranformador de Distribuicao: 500594
New Load.4154318 Bus1=106977B1500594.1.2.3.0 Phases=3 model=8 ZIPV=[0.5 0 0.5 1 0 0] Kv=0.220 kW=69.87 PF= 0.92 conn=wye
! Tranformador de Distribuicao: 500594
New Load.4243436 Bus1=106977B1500594.1.2.3.0 Phases=3 model=8 ZIPV=[0.5 0 0.5 1 0 0] Kv=0.220 kW=12.87 PF= 0.92 conn=wye
! Tranformador de Distribuicao: 500594
New Load.4243920 Bus1=106977B1500594.3.1.0 Phases=2 model=8 ZIPV=[0.5 0 0.5 1 0 0] Kv=0.220 kW=5.0 PF= 0.92 conn=wye
! Tranformador de Distribuicao: 500594
New Load.4670120 Bus1=106977B1500594.1.2.3.0 Phases=3 model=8 ZIPV=[0.5 0 0.5 1 0 0] Kv=0.220 kW=14.18 PF= 0.92 conn=wye
! Tranformador de Distribuicao: 500594
New Load.4785515 Bus1=106977B1500594.2.0 Phases=1 model=8 ZIPV=[0.5 0 0.5 1 0 0] Kv=0.127 kW=2.0 PF= 0.92 conn=wye
! Tranformador de Distribuicao: 500594
New Load.4816789 Bus1=106977B1500594.1.2.3.0 Phases=3 model=8 ZIPV=[0.5 0 0.5 1 0 0] Kv=0.220 kW=1.84 PF= 0.92 conn=wye
! Tranformador de Distribuicao: 500594
New Load.5040784 Bus1=106977B1500594.1.2.3.0 Phases=3 model=8 ZIPV=[0.5 0 0.5 1 0 0] Kv=0.220 kW=14.0 PF= 0.92 conn=wye
! Tranformador de Distribuicao: 500594
New Load.5092593 Bus1=106977B1500594.1.0 Phases=1 model=8 ZIPV=[0.5 0 0.5 1 0 0] Kv=0.220 kW=15.02 PF= 0.92 conn=wye
! Tranformador de Distribuicao: 500594
New Load.5318096 Bus1=106977B1500594.2.0 Phases=1 model=8 ZIPV=[0.5 0 0.5 1 0 0] Kv=0.127 kW=2.0 PF= 0.92 conn=wye
! Tranformador de Distribuicao: 500594
New Load.5533174 Bus1=106977B1500594.3.1.0 Phases=2 model=8 ZIPV=[0.5 0 0.5 1 0 0] Kv=0.220 kW=13.92 PF= 0.92 conn=wye
! Tranformador de Distribuicao: 500594
New Load.6048404 Bus1=106977B1500594.3.1.0 Phases=2 model=8 ZIPV=[0.5 0 0.5 1 0 0] Kv=0.220 kW=6.88 PF= 0.92 conn=wye
! Tranformador de Distribuicao: 500594
New Load.6058372 Bus1=106977B1500594.1.2.3.0 Phases=3 model=8 ZIPV=[0.5 0 0.5 1 0 0] Kv=0.220 kW=14.42 PF= 0.92 conn=wye
! Tranformador de Distribuicao: 500594
New Load.6065560 Bus1=106977B1500594.1.2.3.0 Phases=3 model=8 ZIPV=[0.5 0 0.5 1 0 0] Kv=0.220 kW=5.0 PF= 0.92 conn=wye
! Tranformador de Distribuicao: 500594
New Load.6079017 Bus1=106977B1500594.3.0 Phases=1 model=8 ZIPV=[0.5 0 0.5 1 0 0] Kv=0.127 kW=2.0 PF= 0.92 conn=wye
! Tranformador de Distribuicao: F13822
New Load.75942 Bus1=107071B1F13822.3.0 Phases=1 model=8 ZIPV=[0.5 0 0.5 1 0 0] Kv=0.127 kW=1.03 PF= 0.92 conn=wye
! Tranformador de Distribuicao: F13822
New Load.80960 Bus1=107071B1F13822.2.0 Phases=1 model=8 ZIPV=[0.5 0 0.5 1 0 0] Kv=0.127 kW=2.0 PF= 0.92 conn=wye
! Tranformador de Distribuicao: F13822
New Load.140234 Bus1=107071B1F13822.1.0 Phases=1 model=8 ZIPV=[0.5 0 0.5 1 0 0] Kv=0.127 kW=4.0 PF= 0.92 conn=wye
! Tranformador de Distribuicao: F13822
New Load.156644 Bus1=107071B1F13822.3.0 Phases=1 model=8 ZIPV=[0.5 0 0.5 1 0 0] Kv=0.127 kW=3.5 PF= 0.92 conn=wye
! Tranformador de Distribuicao: F13822
New Load.694346 Bus1=107071B1F13822.3.0 Phases=1 model=8 ZIPV=[0.5 0 0.5 1 0 0] Kv=0.127 kW=3.0 PF= 0.92 conn=wye
! Tranformador de Distribuicao: F13822
New Load.695869 Bus1=107071B1F13822.1.2.3.0 Phases=3 model=8 ZIPV=[0.5 0 0.5 1 0 0] Kv=0.220 kW=3.0 PF= 0.92 conn=wye
! Tranformador de Distribuicao: F13822
New Load.792872 Bus1=107071B1F13822.3.0 Phases=1 model=8 ZIPV=[0.5 0 0.5 1 0 0] Kv=0.127 kW=2.0 PF= 0.92 conn=wye
! Tranformador de Distribuicao: F13822
New Load.800967 Bus1=107071B1F13822.1.0 Phases=1 model=8 ZIPV=[0.5 0 0.5 1 0 0] Kv=0.220 kW=10.13 PF= 0.92 conn=wye
! Tranformador de Distribuicao: F13822
New Load.916425 Bus1=107071B1F13822.1.0 Phases=1 model=8 ZIPV=[0.5 0 0.5 1 0 0] Kv=0.127 kW=1.79 PF= 0.92 conn=wye
! Tranformador de Distribuicao: F13822
New Load.1270656 Bus1=107071B1F13822.3.0 Phases=1 model=8 ZIPV=[0.5 0 0.5 1 0 0] Kv=0.127 kW=7.0 PF= 0.92 conn=wye
! Tranformador de Distribuicao: F13822
New Load.1531199 Bus1=107071B1F13822.3.0 Phases=1 model=8 ZIPV=[0.5 0 0.5 1 0 0] Kv=0.127 kW=5.0 PF= 0.92 conn=wye
! Tranformador de Distribuicao: F13822
New Load.1780182 Bus1=107071B1F13822.1.2.3.0 Phases=3 model=8 ZIPV=[0.5 0 0.5 1 0 0] Kv=0.220 kW=3.0 PF= 0.92 conn=wye
! Tranformador de Distribuicao: F13822
New Load.1870642 Bus1=107071B1F13822.1.0 Phases=1 model=8 ZIPV=[0.5 0 0.5 1 0 0] Kv=0.127 kW=4.0 PF= 0.92 conn=wye
! Tranformador de Distribuicao: F13822
New Load.1889574 Bus1=107071B1F13822.2.0 Phases=1 model=8 ZIPV=[0.5 0 0.5 1 0 0] Kv=0.127 kW=3.0 PF= 0.92 conn=wye
! Tranformador de Distribuicao: F13822
New Load.2071872 Bus1=107071B1F13822.1.0 Phases=1 model=8 ZIPV=[0.5 0 0.5 1 0 0] Kv=0.127 kW=3.0 PF= 0.92 conn=wye
! Tranformador de Distribuicao: F13822
New Load.2262772 Bus1=107071B1F13822.2.0 Phases=1 model=8 ZIPV=[0.5 0 0.5 1 0 0] Kv=0.127 kW=1.0 PF= 0.92 conn=wye
! Tranformador de Distribuicao: F13822
New Load.2674297 Bus1=107071B1F13822.3.0 Phases=1 model=8 ZIPV=[0.5 0 0.5 1 0 0] Kv=0.127 kW=2.0 PF= 0.92 conn=wye
! Tranformador de Distribuicao: F13822
New Load.2864002 Bus1=107071B1F13822.2.0 Phases=1 model=8 ZIPV=[0.5 0 0.5 1 0 0] Kv=0.127 kW=4.0 PF= 0.92 conn=wye
! Tranformador de Distribuicao: F13822
New Load.2891555 Bus1=107071B1F13822.3.0 Phases=1 model=8 ZIPV=[0.5 0 0.5 1 0 0] Kv=0.127 kW=3.6 PF= 0.92 conn=wye
! Tranformador de Distribuicao: F13822
New Load.3057797 Bus1=107071B1F13822.1.0 Phases=1 model=8 ZIPV=[0.5 0 0.5 1 0 0] Kv=0.127 kW=2.0 PF= 0.92 conn=wye
! Tranformador de Distribuicao: F13822
New Load.3228475 Bus1=107071B1F13822.1.0 Phases=1 model=8 ZIPV=[0.5 0 0.5 1 0 0] Kv=0.127 kW=7.54 PF= 0.92 conn=wye
! Tranformador de Distribuicao: F13822
New Load.3258125 Bus1=107071B1F13822.1.0 Phases=1 model=8 ZIPV=[0.5 0 0.5 1 0 0] Kv=0.127 kW=4.56 PF= 0.92 conn=wye
! Tranformador de Distribuicao: F13822
New Load.3337057 Bus1=107071B1F13822.3.0 Phases=1 model=8 ZIPV=[0.5 0 0.5 1 0 0] Kv=0.127 kW=2.0 PF= 0.92 conn=wye
! Tranformador de Distribuicao: F13822
New Load.3448520 Bus1=107071B1F13822.3.0 Phases=1 model=8 ZIPV=[0.5 0 0.5 1 0 0] Kv=0.127 kW=2.0 PF= 0.92 conn=wye
! Tranformador de Distribuicao: F13822
New Load.3472898 Bus1=107071B1F13822.1.0 Phases=1 model=8 ZIPV=[0.5 0 0.5 1 0 0] Kv=0.127 kW=2.0 PF= 0.92 conn=wye
! Tranformador de Distribuicao: F13822
New Load.3528027 Bus1=107071B1F13822.1.0 Phases=1 model=8 ZIPV=[0.5 0 0.5 1 0 0] Kv=0.127 kW=2.0 PF= 0.92 conn=wye
! Tranformador de Distribuicao: F13822
New Load.3574236 Bus1=107071B1F13822.3.0 Phases=1 model=8 ZIPV=[0.5 0 0.5 1 0 0] Kv=0.127 kW=1.49 PF= 0.92 conn=wye
! Tranformador de Distribuicao: F13822
New Load.3717357 Bus1=107071B1F13822.3.0 Phases=1 model=8 ZIPV=[0.5 0 0.5 1 0 0] Kv=0.127 kW=4.5 PF= 0.92 conn=wye
! Tranformador de Distribuicao: F13822
New Load.3733879 Bus1=107071B1F13822.1.0 Phases=1 model=8 ZIPV=[0.5 0 0.5 1 0 0] Kv=0.127 kW=4.0 PF= 0.92 conn=wye
! Tranformador de Distribuicao: F13822
New Load.3849356 Bus1=107071B1F13822.3.0 Phases=1 model=8 ZIPV=[0.5 0 0.5 1 0 0] Kv=0.127 kW=2.0 PF= 0.92 conn=wye
! Tranformador de Distribuicao: F13822
New Load.4239670 Bus1=107071B1F13822.2.0 Phases=1 model=8 ZIPV=[0.5 0 0.5 1 0 0] Kv=0.127 kW=1.0 PF= 0.92 conn=wye
! Tranformador de Distribuicao: F13822
New Load.4344833 Bus1=107071B1F13822.2.0 Phases=1 model=8 ZIPV=[0.5 0 0.5 1 0 0] Kv=0.127 kW=2.0 PF= 0.92 conn=wye
! Tranformador de Distribuicao: F13822
New Load.4355549 Bus1=107071B1F13822.2.0 Phases=1 model=8 ZIPV=[0.5 0 0.5 1 0 0] Kv=0.127 kW=5.0 PF= 0.92 conn=wye
! Tranformador de Distribuicao: F13822
New Load.4476597 Bus1=107071B1F13822.1.0 Phases=1 model=8 ZIPV=[0.5 0 0.5 1 0 0] Kv=0.127 kW=7.0 PF= 0.92 conn=wye
! Tranformador de Distribuicao: F13822
New Load.4490110 Bus1=107071B1F13822.1.2.3.0 Phases=3 model=8 ZIPV=[0.5 0 0.5 1 0 0] Kv=0.220 kW=3.0 PF= 0.92 conn=wye
! Tranformador de Distribuicao: F13822
New Load.4541728 Bus1=107071B1F13822.2.0 Phases=1 model=8 ZIPV=[0.5 0 0.5 1 0 0] Kv=0.127 kW=1.0 PF= 0.92 conn=wye
! Tranformador de Distribuicao: F13822
New Load.4833608 Bus1=107071B1F13822.2.0 Phases=1 model=8 ZIPV=[0.5 0 0.5 1 0 0] Kv=0.127 kW=3.85 PF= 0.92 conn=wye
! Tranformador de Distribuicao: F13822
New Load.4909143 Bus1=107071B1F13822.1.0 Phases=1 model=8 ZIPV=[0.5 0 0.5 1 0 0] Kv=0.127 kW=2.0 PF= 0.92 conn=wye
! Tranformador de Distribuicao: F13822
New Load.5021200 Bus1=107071B1F13822.2.0 Phases=1 model=8 ZIPV=[0.5 0 0.5 1 0 0] Kv=0.127 kW=3.0 PF= 0.92 conn=wye
! Tranformador de Distribuicao: F13822
New Load.5077415 Bus1=107071B1F13822.2.0 Phases=1 model=8 ZIPV=[0.5 0 0.5 1 0 0] Kv=0.127 kW=1.0 PF= 0.92 conn=wye
! Tranformador de Distribuicao: F13822
New Load.5079356 Bus1=107071B1F13822.1.0 Phases=1 model=8 ZIPV=[0.5 0 0.5 1 0 0] Kv=0.127 kW=7.95 PF= 0.92 conn=wye
! Tranformador de Distribuicao: F13822
New Load.5167594 Bus1=107071B1F13822.3.0 Phases=1 model=8 ZIPV=[0.5 0 0.5 1 0 0] Kv=0.127 kW=2.0 PF= 0.92 conn=wye
! Tranformador de Distribuicao: F13822
New Load.5252478 Bus1=107071B1F13822.3.0 Phases=1 model=8 ZIPV=[0.5 0 0.5 1 0 0] Kv=0.127 kW=3.0 PF= 0.92 conn=wye
! Tranformador de Distribuicao: F13822
New Load.5276016 Bus1=107071B1F13822.1.0 Phases=1 model=8 ZIPV=[0.5 0 0.5 1 0 0] Kv=0.127 kW=2.0 PF= 0.92 conn=wye
! Tranformador de Distribuicao: F13822
New Load.5354481 Bus1=107071B1F13822.3.0 Phases=1 model=8 ZIPV=[0.5 0 0.5 1 0 0] Kv=0.127 kW=4.16 PF= 0.92 conn=wye
! Tranformador de Distribuicao: F13822
New Load.5526710 Bus1=107071B1F13822.3.0 Phases=1 model=8 ZIPV=[0.5 0 0.5 1 0 0] Kv=0.127 kW=4.16 PF= 0.92 conn=wye
! Tranformador de Distribuicao: F13822
New Load.5612174 Bus1=107071B1F13822.1.0 Phases=1 model=8 ZIPV=[0.5 0 0.5 1 0 0] Kv=0.127 kW=4.0 PF= 0.92 conn=wye
! Tranformador de Distribuicao: F13822
New Load.5762086 Bus1=107071B1F13822.2.0 Phases=1 model=8 ZIPV=[0.5 0 0.5 1 0 0] Kv=0.127 kW=6.0 PF= 0.92 conn=wye
! Tranformador de Distribuicao: F13822
New Load.5774872 Bus1=107071B1F13822.1.2.0 Phases=2 model=8 ZIPV=[0.5 0 0.5 1 0 0] Kv=0.220 kW=14.47 PF= 0.92 conn=wye
! Tranformador de Distribuicao: F13822
New Load.5803242 Bus1=107071B1F13822.1.2.0 Phases=2 model=8 ZIPV=[0.5 0 0.5 1 0 0] Kv=0.220 kW=14.47 PF= 0.92 conn=wye
! Tranformador de Distribuicao: F13822
New Load.5870688 Bus1=107071B1F13822.2.0 Phases=1 model=8 ZIPV=[0.5 0 0.5 1 0 0] Kv=0.127 kW=1.0 PF= 0.92 conn=wye
! Tranformador de Distribuicao: F13822
New Load.5925963 Bus1=107071B1F13822.3.0 Phases=1 model=8 ZIPV=[0.5 0 0.5 1 0 0] Kv=0.127 kW=3.0 PF= 0.92 conn=wye
! Tranformador de Distribuicao: F13822
New Load.6002329 Bus1=107071B1F13822.1.0 Phases=1 model=8 ZIPV=[0.5 0 0.5 1 0 0] Kv=0.127 kW=2.0 PF= 0.92 conn=wye
! Tranformador de Distribuicao: F13822
New Load.6280739 Bus1=107071B1F13822.1.0 Phases=1 model=8 ZIPV=[0.5 0 0.5 1 0 0] Kv=0.127 kW=2.5 PF= 0.92 conn=wye
! Tranformador de Distribuicao: F15272
New Load.98320 Bus1=106792B1F15272.3.0 Phases=1 model=8 ZIPV=[0.5 0 0.5 1 0 0] Kv=0.127 kW=2.17 PF= 0.92 conn=wye
! Tranformador de Distribuicao: F15272
New Load.143568 Bus1=106792B1F15272.2.0 Phases=1 model=8 ZIPV=[0.5 0 0.5 1 0 0] Kv=0.127 kW=2.64 PF= 0.92 conn=wye
! Tranformador de Distribuicao: F15272
New Load.176768 Bus1=106792B1F15272.1.0 Phases=1 model=8 ZIPV=[0.5 0 0.5 1 0 0] Kv=0.127 kW=9.47 PF= 0.92 conn=wye
! Tranformador de Distribuicao: F15272
New Load.188807 Bus1=106792B1F15272.3.0 Phases=1 model=8 ZIPV=[0.5 0 0.5 1 0 0] Kv=0.127 kW=1.82 PF= 0.92 conn=wye
! Tranformador de Distribuicao: F15272
New Load.403688 Bus1=106792B1F15272.2.0 Phases=1 model=8 ZIPV=[0.5 0 0.5 1 0 0] Kv=0.127 kW=0.6 PF= 0.92 conn=wye
! Tranformador de Distribuicao: F15272
New Load.483817 Bus1=106792B1F15272.1.0 Phases=1 model=8 ZIPV=[0.5 0 0.5 1 0 0] Kv=0.127 kW=2.09 PF= 0.92 conn=wye
! Tranformador de Distribuicao: F15272
New Load.495278 Bus1=106792B1F15272.3.0 Phases=1 model=8 ZIPV=[0.5 0 0.5 1 0 0] Kv=0.127 kW=3.0 PF= 0.92 conn=wye
! Tranformador de Distribuicao: F15272
New Load.502975 Bus1=106792B1F15272.1.0 Phases=1 model=8 ZIPV=[0.5 0 0.5 1 0 0] Kv=0.127 kW=1.46 PF= 0.92 conn=wye
! Tranformador de Distribuicao: F15272
New Load.561539 Bus1=106792B1F15272.3.0 Phases=1 model=8 ZIPV=[0.5 0 0.5 1 0 0] Kv=0.127 kW=2.0 PF= 0.92 conn=wye
! Tranformador de Distribuicao: F15272
New Load.732714 Bus1=106792B1F15272.2.0 Phases=1 model=8 ZIPV=[0.5 0 0.5 1 0 0] Kv=0.127 kW=5.95 PF= 0.92 conn=wye
! Tranformador de Distribuicao: F15272
New Load.736117 Bus1=106792B1F15272.1.0 Phases=1 model=8 ZIPV=[0.5 0 0.5 1 0 0] Kv=0.127 kW=2.16 PF= 0.92 conn=wye
! Tranformador de Distribuicao: F15272
New Load.777899 Bus1=106792B1F15272.3.0 Phases=1 model=8 ZIPV=[0.5 0 0.5 1 0 0] Kv=0.127 kW=3.74 PF= 0.92 conn=wye
! Tranformador de Distribuicao: F15272
New Load.802331 Bus1=106792B1F15272.3.0 Phases=1 model=8 ZIPV=[0.5 0 0.5 1 0 0] Kv=0.220 kW=12.91 PF= 0.92 conn=wye
! Tranformador de Distribuicao: F15272
New Load.896157 Bus1=106792B1F15272.1.0 Phases=1 model=8 ZIPV=[0.5 0 0.5 1 0 0] Kv=0.127 kW=2.5 PF= 0.92 conn=wye
! Tranformador de Distribuicao: F15272
New Load.1000540 Bus1=106792B1F15272.1.0 Phases=1 model=8 ZIPV=[0.5 0 0.5 1 0 0] Kv=0.127 kW=2.29 PF= 0.92 conn=wye
! Tranformador de Distribuicao: F15272
New Load.1018131 Bus1=106792B1F15272.2.3.0 Phases=2 model=8 ZIPV=[0.5 0 0.5 1 0 0] Kv=0.220 kW=11.3 PF= 0.92 conn=wye
! Tranformador de Distribuicao: F15272
New Load.1219979 Bus1=106792B1F15272.1.2.3.0 Phases=3 model=8 ZIPV=[0.5 0 0.5 1 0 0] Kv=0.220 kW=2.0 PF= 0.92 conn=wye
! Tranformador de Distribuicao: F15272
New Load.1266043 Bus1=106792B1F15272.3.0 Phases=1 model=8 ZIPV=[0.5 0 0.5 1 0 0] Kv=0.127 kW=2.0 PF= 0.92 conn=wye
! Tranformador de Distribuicao: F15272
New Load.1315498 Bus1=106792B1F15272.2.0 Phases=1 model=8 ZIPV=[0.5 0 0.5 1 0 0] Kv=0.127 kW=2.0 PF= 0.92 conn=wye
! Tranformador de Distribuicao: F15272
New Load.1348407 Bus1=106792B1F15272.1.0 Phases=1 model=8 ZIPV=[0.5 0 0.5 1 0 0] Kv=0.127 kW=3.5 PF= 0.92 conn=wye
! Tranformador de Distribuicao: F15272
New Load.1374520 Bus1=106792B1F15272.3.0 Phases=1 model=8 ZIPV=[0.5 0 0.5 1 0 0] Kv=0.127 kW=2.0 PF= 0.92 conn=wye
! Tranformador de Distribuicao: F15272
New Load.1388223 Bus1=106792B1F15272.3.0 Phases=1 model=8 ZIPV=[0.5 0 0.5 1 0 0] Kv=0.127 kW=2.0 PF= 0.92 conn=wye
! Tranformador de Distribuicao: F15272
New Load.1493834 Bus1=106792B1F15272.1.0 Phases=1 model=8 ZIPV=[0.5 0 0.5 1 0 0] Kv=0.127 kW=2.0 PF= 0.92 conn=wye
! Tranformador de Distribuicao: F15272
New Load.1666763 Bus1=106792B1F15272.1.0 Phases=1 model=8 ZIPV=[0.5 0 0.5 1 0 0] Kv=0.127 kW=1.0 PF= 0.92 conn=wye
! Tranformador de Distribuicao: F15272
New Load.1766727 Bus1=106792B1F15272.2.0 Phases=1 model=8 ZIPV=[0.5 0 0.5 1 0 0] Kv=0.127 kW=1.0 PF= 0.92 conn=wye
! Tranformador de Distribuicao: F15272
New Load.1800396 Bus1=106792B1F15272.1.0 Phases=1 model=8 ZIPV=[0.5 0 0.5 1 0 0] Kv=0.127 kW=2.0 PF= 0.92 conn=wye
! Tranformador de Distribuicao: F15272
New Load.1819114 Bus1=106792B1F15272.3.0 Phases=1 model=8 ZIPV=[0.5 0 0.5 1 0 0] Kv=0.127 kW=5.0 PF= 0.92 conn=wye
! Tranformador de Distribuicao: F15272
New Load.1876953 Bus1=106792B1F15272.3.0 Phases=1 model=8 ZIPV=[0.5 0 0.5 1 0 0] Kv=0.127 kW=3.8 PF= 0.92 conn=wye
! Tranformador de Distribuicao: F15272
New Load.1957864 Bus1=106792B1F15272.2.0 Phases=1 model=8 ZIPV=[0.5 0 0.5 1 0 0] Kv=0.127 kW=1.0 PF= 0.92 conn=wye
! Tranformador de Distribuicao: F15272
New Load.1972856 Bus1=106792B1F15272.2.0 Phases=1 model=8 ZIPV=[0.5 0 0.5 1 0 0] Kv=0.127 kW=1.0 PF= 0.92 conn=wye
! Tranformador de Distribuicao: F15272
New Load.1982331 Bus1=106792B1F15272.2.0 Phases=1 model=8 ZIPV=[0.5 0 0.5 1 0 0] Kv=0.127 kW=2.58 PF= 0.92 conn=wye
! Tranformador de Distribuicao: F15272
New Load.2019617 Bus1=106792B1F15272.3.0 Phases=1 model=8 ZIPV=[0.5 0 0.5 1 0 0] Kv=0.127 kW=1.0 PF= 0.92 conn=wye
! Tranformador de Distribuicao: F15272
New Load.2032861 Bus1=106792B1F15272.1.0 Phases=1 model=8 ZIPV=[0.5 0 0.5 1 0 0] Kv=0.127 kW=1.0 PF= 0.92 conn=wye
! Tranformador de Distribuicao: F15272
New Load.2159964 Bus1=106792B1F15272.1.2.0 Phases=2 model=8 ZIPV=[0.5 0 0.5 1 0 0] Kv=0.220 kW=7.0 PF= 0.92 conn=wye
! Tranformador de Distribuicao: F15272
New Load.2240386 Bus1=106792B1F15272.1.0 Phases=1 model=8 ZIPV=[0.5 0 0.5 1 0 0] Kv=0.127 kW=1.0 PF= 0.92 conn=wye
! Tranformador de Distribuicao: F15272
New Load.2247802 Bus1=106792B1F15272.2.0 Phases=1 model=8 ZIPV=[0.5 0 0.5 1 0 0] Kv=0.127 kW=1.0 PF= 0.92 conn=wye
! Tranformador de Distribuicao: F15272
New Load.2263009 Bus1=106792B1F15272.2.0 Phases=1 model=8 ZIPV=[0.5 0 0.5 1 0 0] Kv=0.127 kW=2.0 PF= 0.92 conn=wye
! Tranformador de Distribuicao: F15272
New Load.2315397 Bus1=106792B1F15272.3.0 Phases=1 model=8 ZIPV=[0.5 0 0.5 1 0 0] Kv=0.127 kW=1.74 PF= 0.92 conn=wye
! Tranformador de Distribuicao: F15272
New Load.2345201 Bus1=106792B1F15272.1.0 Phases=1 model=8 ZIPV=[0.5 0 0.5 1 0 0] Kv=0.127 kW=2.64 PF= 0.92 conn=wye
! Tranformador de Distribuicao: F15272
New Load.2375697 Bus1=106792B1F15272.3.0 Phases=1 model=8 ZIPV=[0.5 0 0.5 1 0 0] Kv=0.127 kW=1.0 PF= 0.92 conn=wye
! Tranformador de Distribuicao: F15272
New Load.2378563 Bus1=106792B1F15272.2.0 Phases=1 model=8 ZIPV=[0.5 0 0.5 1 0 0] Kv=0.127 kW=1.0 PF= 0.92 conn=wye
! Tranformador de Distribuicao: F15272
New Load.2409202 Bus1=106792B1F15272.2.0 Phases=1 model=8 ZIPV=[0.5 0 0.5 1 0 0] Kv=0.127 kW=3.5 PF= 0.92 conn=wye
! Tranformador de Distribuicao: F15272
New Load.2450824 Bus1=106792B1F15272.3.0 Phases=1 model=8 ZIPV=[0.5 0 0.5 1 0 0] Kv=0.127 kW=2.12 PF= 0.92 conn=wye
! Tranformador de Distribuicao: F15272
New Load.2499081 Bus1=106792B1F15272.1.0 Phases=1 model=8 ZIPV=[0.5 0 0.5 1 0 0] Kv=0.127 kW=1.0 PF= 0.92 conn=wye
! Tranformador de Distribuicao: F15272
New Load.2543561 Bus1=106792B1F15272.1.0 Phases=1 model=8 ZIPV=[0.5 0 0.5 1 0 0] Kv=0.127 kW=4.08 PF= 0.92 conn=wye
! Tranformador de Distribuicao: F15272
New Load.2743858 Bus1=106792B1F15272.1.2.0 Phases=2 model=8 ZIPV=[0.5 0 0.5 1 0 0] Kv=0.220 kW=1.0 PF= 0.92 conn=wye
! Tranformador de Distribuicao: F15272
New Load.2763555 Bus1=106792B1F15272.3.0 Phases=1 model=8 ZIPV=[0.5 0 0.5 1 0 0] Kv=0.127 kW=3.5 PF= 0.92 conn=wye
! Tranformador de Distribuicao: F15272
New Load.2813563 Bus1=106792B1F15272.2.0 Phases=1 model=8 ZIPV=[0.5 0 0.5 1 0 0] Kv=0.127 kW=2.04 PF= 0.92 conn=wye
! Tranformador de Distribuicao: F15272
New Load.2844603 Bus1=106792B1F15272.2.0 Phases=1 model=8 ZIPV=[0.5 0 0.5 1 0 0] Kv=0.127 kW=2.0 PF= 0.92 conn=wye
! Tranformador de Distribuicao: F15272
New Load.2908375 Bus1=106792B1F15272.1.0 Phases=1 model=8 ZIPV=[0.5 0 0.5 1 0 0] Kv=0.127 kW=2.0 PF= 0.92 conn=wye
! Tranformador de Distribuicao: F15272
New Load.2909756 Bus1=106792B1F15272.1.0 Phases=1 model=8 ZIPV=[0.5 0 0.5 1 0 0] Kv=0.127 kW=1.0 PF= 0.92 conn=wye
! Tranformador de Distribuicao: F15272
New Load.2948562 Bus1=106792B1F15272.1.0 Phases=1 model=8 ZIPV=[0.5 0 0.5 1 0 0] Kv=0.127 kW=1.0 PF= 0.92 conn=wye
! Tranformador de Distribuicao: F15272
New Load.2953461 Bus1=106792B1F15272.2.3.0 Phases=2 model=8 ZIPV=[0.5 0 0.5 1 0 0] Kv=0.220 kW=5.22 PF= 0.92 conn=wye
! Tranformador de Distribuicao: F15272
New Load.2966084 Bus1=106792B1F15272.2.0 Phases=1 model=8 ZIPV=[0.5 0 0.5 1 0 0] Kv=0.127 kW=1.74 PF= 0.92 conn=wye
! Tranformador de Distribuicao: F15272
New Load.2992320 Bus1=106792B1F15272.3.0 Phases=1 model=8 ZIPV=[0.5 0 0.5 1 0 0] Kv=0.127 kW=2.09 PF= 0.92 conn=wye
! Tranformador de Distribuicao: F15272
New Load.3058460 Bus1=106792B1F15272.3.0 Phases=1 model=8 ZIPV=[0.5 0 0.5 1 0 0] Kv=0.127 kW=2.15 PF= 0.92 conn=wye
! Tranformador de Distribuicao: F15272
New Load.3099614 Bus1=106792B1F15272.1.0 Phases=1 model=8 ZIPV=[0.5 0 0.5 1 0 0] Kv=0.127 kW=2.19 PF= 0.92 conn=wye
! Tranformador de Distribuicao: F15272
New Load.3108811 Bus1=106792B1F15272.1.0 Phases=1 model=8 ZIPV=[0.5 0 0.5 1 0 0] Kv=0.127 kW=1.0 PF= 0.92 conn=wye
! Tranformador de Distribuicao: F15272
New Load.3117287 Bus1=106792B1F15272.2.0 Phases=1 model=8 ZIPV=[0.5 0 0.5 1 0 0] Kv=0.127 kW=1.67 PF= 0.92 conn=wye
! Tranformador de Distribuicao: F15272
New Load.3126969 Bus1=106792B1F15272.2.0 Phases=1 model=8 ZIPV=[0.5 0 0.5 1 0 0] Kv=0.127 kW=6.78 PF= 0.92 conn=wye
! Tranformador de Distribuicao: F15272
New Load.3129899 Bus1=106792B1F15272.3.0 Phases=1 model=8 ZIPV=[0.5 0 0.5 1 0 0] Kv=0.127 kW=1.0 PF= 0.92 conn=wye
! Tranformador de Distribuicao: F15272
New Load.3139847 Bus1=106792B1F15272.3.0 Phases=1 model=8 ZIPV=[0.5 0 0.5 1 0 0] Kv=0.127 kW=1.54 PF= 0.92 conn=wye
! Tranformador de Distribuicao: F15272
New Load.3213250 Bus1=106792B1F15272.2.0 Phases=1 model=8 ZIPV=[0.5 0 0.5 1 0 0] Kv=0.127 kW=1.8 PF= 0.92 conn=wye
! Tranformador de Distribuicao: F15272
New Load.3225777 Bus1=106792B1F15272.3.0 Phases=1 model=8 ZIPV=[0.5 0 0.5 1 0 0] Kv=0.127 kW=2.0 PF= 0.92 conn=wye
! Tranformador de Distribuicao: F15272
New Load.3236865 Bus1=106792B1F15272.3.0 Phases=1 model=8 ZIPV=[0.5 0 0.5 1 0 0] Kv=0.127 kW=1.0 PF= 0.92 conn=wye
! Tranformador de Distribuicao: F15272
New Load.3242530 Bus1=106792B1F15272.3.0 Phases=1 model=8 ZIPV=[0.5 0 0.5 1 0 0] Kv=0.127 kW=5.75 PF= 0.92 conn=wye
! Tranformador de Distribuicao: F15272
New Load.3342532 Bus1=106792B1F15272.1.0 Phases=1 model=8 ZIPV=[0.5 0 0.5 1 0 0] Kv=0.127 kW=0.8 PF= 0.92 conn=wye
! Tranformador de Distribuicao: F15272
New Load.3484542 Bus1=106792B1F15272.1.2.0 Phases=2 model=8 ZIPV=[0.5 0 0.5 1 0 0] Kv=0.220 kW=8.04 PF= 0.92 conn=wye
! Tranformador de Distribuicao: F15272
New Load.3515939 Bus1=106792B1F15272.3.0 Phases=1 model=8 ZIPV=[0.5 0 0.5 1 0 0] Kv=0.127 kW=2.5 PF= 0.92 conn=wye
! Tranformador de Distribuicao: F15272
New Load.3545828 Bus1=106792B1F15272.1.0 Phases=1 model=8 ZIPV=[0.5 0 0.5 1 0 0] Kv=0.127 kW=5.0 PF= 0.92 conn=wye
! Tranformador de Distribuicao: F15272
New Load.3549722 Bus1=106792B1F15272.1.2.3.0 Phases=3 model=8 ZIPV=[0.5 0 0.5 1 0 0] Kv=0.127 kW=0.2 PF= 0.92 conn=wye
! Tranformador de Distribuicao: F15272
New Load.3568306 Bus1=106792B1F15272.2.0 Phases=1 model=8 ZIPV=[0.5 0 0.5 1 0 0] Kv=0.127 kW=4.0 PF= 0.92 conn=wye
! Tranformador de Distribuicao: F15272
New Load.3587112 Bus1=106792B1F15272.3.0 Phases=1 model=8 ZIPV=[0.5 0 0.5 1 0 0] Kv=0.127 kW=3.0 PF= 0.92 conn=wye
! Tranformador de Distribuicao: F15272
New Load.3697958 Bus1=106792B1F15272.1.0 Phases=1 model=8 ZIPV=[0.5 0 0.5 1 0 0] Kv=0.127 kW=3.0 PF= 0.92 conn=wye
! Tranformador de Distribuicao: F15272
New Load.3703049 Bus1=106792B1F15272.1.0 Phases=1 model=8 ZIPV=[0.5 0 0.5 1 0 0] Kv=0.127 kW=6.58 PF= 0.92 conn=wye
! Tranformador de Distribuicao: F15272
New Load.3798153 Bus1=106792B1F15272.1.0 Phases=1 model=8 ZIPV=[0.5 0 0.5 1 0 0] Kv=0.127 kW=1.0 PF= 0.92 conn=wye
! Tranformador de Distribuicao: F15272
New Load.3890660 Bus1=106792B1F15272.2.0 Phases=1 model=8 ZIPV=[0.5 0 0.5 1 0 0] Kv=0.127 kW=5.12 PF= 0.92 conn=wye
! Tranformador de Distribuicao: F15272
New Load.4062645 Bus1=106792B1F15272.1.0 Phases=1 model=8 ZIPV=[0.5 0 0.5 1 0 0] Kv=0.127 kW=1.44 PF= 0.92 conn=wye
! Tranformador de Distribuicao: F15272
New Load.4100120 Bus1=106792B1F15272.2.0 Phases=1 model=8 ZIPV=[0.5 0 0.5 1 0 0] Kv=0.127 kW=2.41 PF= 0.92 conn=wye
! Tranformador de Distribuicao: F15272
New Load.4188963 Bus1=106792B1F15272.1.0 Phases=1 model=8 ZIPV=[0.5 0 0.5 1 0 0] Kv=0.127 kW=3.4 PF= 0.92 conn=wye
! Tranformador de Distribuicao: F15272
New Load.4233354 Bus1=106792B1F15272.3.0 Phases=1 model=8 ZIPV=[0.5 0 0.5 1 0 0] Kv=0.127 kW=3.5 PF= 0.92 conn=wye
! Tranformador de Distribuicao: F15272
New Load.4281743 Bus1=106792B1F15272.2.0 Phases=1 model=8 ZIPV=[0.5 0 0.5 1 0 0] Kv=0.127 kW=1.59 PF= 0.92 conn=wye
! Tranformador de Distribuicao: F15272
New Load.4285206 Bus1=106792B1F15272.1.0 Phases=1 model=8 ZIPV=[0.5 0 0.5 1 0 0] Kv=0.127 kW=1.5 PF= 0.92 conn=wye
! Tranformador de Distribuicao: F15272
New Load.4320098 Bus1=106792B1F15272.1.0 Phases=1 model=8 ZIPV=[0.5 0 0.5 1 0 0] Kv=0.127 kW=6.73 PF= 0.92 conn=wye
! Tranformador de Distribuicao: F15272
New Load.4337042 Bus1=106792B1F15272.2.0 Phases=1 model=8 ZIPV=[0.5 0 0.5 1 0 0] Kv=0.127 kW=1.0 PF= 0.92 conn=wye
! Tranformador de Distribuicao: F15272
New Load.4370958 Bus1=106792B1F15272.3.0 Phases=1 model=8 ZIPV=[0.5 0 0.5 1 0 0] Kv=0.127 kW=1.0 PF= 0.92 conn=wye
! Tranformador de Distribuicao: F15272
New Load.4387963 Bus1=106792B1F15272.2.0 Phases=1 model=8 ZIPV=[0.5 0 0.5 1 0 0] Kv=0.127 kW=2.0 PF= 0.92 conn=wye
! Tranformador de Distribuicao: F15272
New Load.4429410 Bus1=106792B1F15272.1.2.0 Phases=2 model=8 ZIPV=[0.5 0 0.5 1 0 0] Kv=0.220 kW=5.44 PF= 0.92 conn=wye
! Tranformador de Distribuicao: F15272
New Load.4436374 Bus1=106792B1F15272.1.0 Phases=1 model=8 ZIPV=[0.5 0 0.5 1 0 0] Kv=0.127 kW=1.0 PF= 0.92 conn=wye
! Tranformador de Distribuicao: F15272
New Load.4542179 Bus1=106792B1F15272.3.1.0 Phases=2 model=8 ZIPV=[0.5 0 0.5 1 0 0] Kv=0.220 kW=4.14 PF= 0.92 conn=wye
! Tranformador de Distribuicao: F15272
New Load.4693924 Bus1=106792B1F15272.2.0 Phases=1 model=8 ZIPV=[0.5 0 0.5 1 0 0] Kv=0.127 kW=3.0 PF= 0.92 conn=wye
! Tranformador de Distribuicao: F15272
New Load.4738930 Bus1=106792B1F15272.2.0 Phases=1 model=8 ZIPV=[0.5 0 0.5 1 0 0] Kv=0.127 kW=3.9 PF= 0.92 conn=wye
! Tranformador de Distribuicao: F15272
New Load.4752522 Bus1=106792B1F15272.2.0 Phases=1 model=8 ZIPV=[0.5 0 0.5 1 0 0] Kv=0.127 kW=3.0 PF= 0.92 conn=wye
! Tranformador de Distribuicao: F15272
New Load.4754460 Bus1=106792B1F15272.3.0 Phases=1 model=8 ZIPV=[0.5 0 0.5 1 0 0] Kv=0.127 kW=2.0 PF= 0.92 conn=wye
! Tranformador de Distribuicao: F15272
New Load.4763837 Bus1=106792B1F15272.1.0 Phases=1 model=8 ZIPV=[0.5 0 0.5 1 0 0] Kv=0.127 kW=4.47 PF= 0.92 conn=wye
! Tranformador de Distribuicao: F15272
New Load.4823530 Bus1=106792B1F15272.2.0 Phases=1 model=8 ZIPV=[0.5 0 0.5 1 0 0] Kv=0.127 kW=0.6 PF= 0.92 conn=wye
! Tranformador de Distribuicao: F15272
New Load.4881852 Bus1=106792B1F15272.2.0 Phases=1 model=8 ZIPV=[0.5 0 0.5 1 0 0] Kv=0.127 kW=1.0 PF= 0.92 conn=wye
! Tranformador de Distribuicao: F15272
New Load.4896338 Bus1=106792B1F15272.1.0 Phases=1 model=8 ZIPV=[0.5 0 0.5 1 0 0] Kv=0.127 kW=1.0 PF= 0.92 conn=wye
! Tranformador de Distribuicao: F15272
New Load.4924211 Bus1=106792B1F15272.1.0 Phases=1 model=8 ZIPV=[0.5 0 0.5 1 0 0] Kv=0.127 kW=1.32 PF= 0.92 conn=wye
! Tranformador de Distribuicao: F15272
New Load.4975781 Bus1=106792B1F15272.1.2.0 Phases=2 model=8 ZIPV=[0.5 0 0.5 1 0 0] Kv=0.220 kW=3.0 PF= 0.92 conn=wye
! Tranformador de Distribuicao: F15272
New Load.5002341 Bus1=106792B1F15272.1.0 Phases=1 model=8 ZIPV=[0.5 0 0.5 1 0 0] Kv=0.127 kW=2.0 PF= 0.92 conn=wye
! Tranformador de Distribuicao: F15272
New Load.5112212 Bus1=106792B1F15272.2.0 Phases=1 model=8 ZIPV=[0.5 0 0.5 1 0 0] Kv=0.127 kW=3.0 PF= 0.92 conn=wye
! Tranformador de Distribuicao: F15272
New Load.5234510 Bus1=106792B1F15272.2.3.0 Phases=2 model=8 ZIPV=[0.5 0 0.5 1 0 0] Kv=0.220 kW=6.88 PF= 0.92 conn=wye
! Tranformador de Distribuicao: F15272
New Load.5296530 Bus1=106792B1F15272.1.0 Phases=1 model=8 ZIPV=[0.5 0 0.5 1 0 0] Kv=0.127 kW=1.54 PF= 0.92 conn=wye
! Tranformador de Distribuicao: F15272
New Load.5298087 Bus1=106792B1F15272.1.0 Phases=1 model=8 ZIPV=[0.5 0 0.5 1 0 0] Kv=0.127 kW=3.0 PF= 0.92 conn=wye
! Tranformador de Distribuicao: F15272
New Load.5329962 Bus1=106792B1F15272.1.2.0 Phases=2 model=8 ZIPV=[0.5 0 0.5 1 0 0] Kv=0.220 kW=1.41 PF= 0.92 conn=wye
! Tranformador de Distribuicao: F15272
New Load.5381020 Bus1=106792B1F15272.1.0 Phases=1 model=8 ZIPV=[0.5 0 0.5 1 0 0] Kv=0.127 kW=6.78 PF= 0.92 conn=wye
! Tranformador de Distribuicao: F15272
New Load.5434592 Bus1=106792B1F15272.1.0 Phases=1 model=8 ZIPV=[0.5 0 0.5 1 0 0] Kv=0.127 kW=2.0 PF= 0.92 conn=wye
! Tranformador de Distribuicao: F15272
New Load.5435211 Bus1=106792B1F15272.3.0 Phases=1 model=8 ZIPV=[0.5 0 0.5 1 0 0] Kv=0.127 kW=2.0 PF= 0.92 conn=wye
! Tranformador de Distribuicao: F15272
New Load.5437007 Bus1=106792B1F15272.1.0 Phases=1 model=8 ZIPV=[0.5 0 0.5 1 0 0] Kv=0.127 kW=1.9 PF= 0.92 conn=wye
! Tranformador de Distribuicao: F15272
New Load.5586282 Bus1=106792B1F15272.2.0 Phases=1 model=8 ZIPV=[0.5 0 0.5 1 0 0] Kv=0.127 kW=1.2 PF= 0.92 conn=wye
! Tranformador de Distribuicao: F15272
New Load.5668036 Bus1=106792B1F15272.1.0 Phases=1 model=8 ZIPV=[0.5 0 0.5 1 0 0] Kv=0.127 kW=2.0 PF= 0.92 conn=wye
! Tranformador de Distribuicao: F15272
New Load.5686538 Bus1=106792B1F15272.2.0 Phases=1 model=8 ZIPV=[0.5 0 0.5 1 0 0] Kv=0.127 kW=2.41 PF= 0.92 conn=wye
! Tranformador de Distribuicao: F15272
New Load.5720839 Bus1=106792B1F15272.2.0 Phases=1 model=8 ZIPV=[0.5 0 0.5 1 0 0] Kv=0.127 kW=1.22 PF= 0.92 conn=wye
! Tranformador de Distribuicao: F15272
New Load.5764732 Bus1=106792B1F15272.2.0 Phases=1 model=8 ZIPV=[0.5 0 0.5 1 0 0] Kv=0.127 kW=1.0 PF= 0.92 conn=wye
! Tranformador de Distribuicao: F15272
New Load.5872268 Bus1=106792B1F15272.3.0 Phases=1 model=8 ZIPV=[0.5 0 0.5 1 0 0] Kv=0.127 kW=2.09 PF= 0.92 conn=wye
! Tranformador de Distribuicao: F15272
New Load.5902690 Bus1=106792B1F15272.1.2.0 Phases=2 model=8 ZIPV=[0.5 0 0.5 1 0 0] Kv=0.220 kW=1.0 PF= 0.92 conn=wye
! Tranformador de Distribuicao: F15272
New Load.5905310 Bus1=106792B1F15272.3.0 Phases=1 model=8 ZIPV=[0.5 0 0.5 1 0 0] Kv=0.127 kW=4.8 PF= 0.92 conn=wye
! Tranformador de Distribuicao: F15272
New Load.5905897 Bus1=106792B1F15272.1.0 Phases=1 model=8 ZIPV=[0.5 0 0.5 1 0 0] Kv=0.127 kW=1.0 PF= 0.92 conn=wye
! Tranformador de Distribuicao: F15272
New Load.5915861 Bus1=106792B1F15272.3.1.0 Phases=2 model=8 ZIPV=[0.5 0 0.5 1 0 0] Kv=0.220 kW=1.95 PF= 0.92 conn=wye
! Tranformador de Distribuicao: F15272
New Load.5916869 Bus1=106792B1F15272.1.0 Phases=1 model=8 ZIPV=[0.5 0 0.5 1 0 0] Kv=0.127 kW=3.0 PF= 0.92 conn=wye
! Tranformador de Distribuicao: F15272
New Load.6029313 Bus1=106792B1F15272.1.0 Phases=1 model=8 ZIPV=[0.5 0 0.5 1 0 0] Kv=0.127 kW=4.2 PF= 0.92 conn=wye
! Tranformador de Distribuicao: F15272
New Load.6044254 Bus1=106792B1F15272.1.0 Phases=1 model=8 ZIPV=[0.5 0 0.5 1 0 0] Kv=0.127 kW=4.08 PF= 0.92 conn=wye
! Tranformador de Distribuicao: F15272
New Load.6053887 Bus1=106792B1F15272.1.2.0 Phases=2 model=8 ZIPV=[0.5 0 0.5 1 0 0] Kv=0.220 kW=9.0 PF= 0.92 conn=wye
! Tranformador de Distribuicao: F15272
New Load.6068750 Bus1=106792B1F15272.2.0 Phases=1 model=8 ZIPV=[0.5 0 0.5 1 0 0] Kv=0.127 kW=0.6 PF= 0.92 conn=wye
! Tranformador de Distribuicao: F15272
New Load.6187476 Bus1=106792B1F15272.3.0 Phases=1 model=8 ZIPV=[0.5 0 0.5 1 0 0] Kv=0.127 kW=1.0 PF= 0.92 conn=wye
! Tranformador de Distribuicao: F15272
New Load.6187637 Bus1=106792B1F15272.1.0 Phases=1 model=8 ZIPV=[0.5 0 0.5 1 0 0] Kv=0.127 kW=1.83 PF= 0.92 conn=wye
! Tranformador de Distribuicao: F15272
New Load.6202360 Bus1=106792B1F15272.2.0 Phases=1 model=8 ZIPV=[0.5 0 0.5 1 0 0] Kv=0.127 kW=2.58 PF= 0.92 conn=wye
! Tranformador de Distribuicao: F15272
New Load.6246777 Bus1=106792B1F15272.3.0 Phases=1 model=8 ZIPV=[0.5 0 0.5 1 0 0] Kv=0.127 kW=1.0 PF= 0.92 conn=wye
! Tranformador de Distribuicao: F15272
New Load.6248310 Bus1=106792B1F15272.3.0 Phases=1 model=8 ZIPV=[0.5 0 0.5 1 0 0] Kv=0.127 kW=1.82 PF= 0.92 conn=wye
! Tranformador de Distribuicao: F15272
New Load.6249163 Bus1=106792B1F15272.1.0 Phases=1 model=8 ZIPV=[0.5 0 0.5 1 0 0] Kv=0.127 kW=4.2 PF= 0.92 conn=wye
! Tranformador de Distribuicao: F15272
New Load.6250008 Bus1=106792B1F15272.1.0 Phases=1 model=8 ZIPV=[0.5 0 0.5 1 0 0] Kv=0.127 kW=6.1 PF= 0.92 conn=wye
! Tranformador de Distribuicao: F15272
New Load.6256213 Bus1=106792B1F15272.3.0 Phases=1 model=8 ZIPV=[0.5 0 0.5 1 0 0] Kv=0.127 kW=1.0 PF= 0.92 conn=wye
! Tranformador de Distribuicao: F15272
New Load.6259930 Bus1=106792B1F15272.2.3.0 Phases=2 model=8 ZIPV=[0.5 0 0.5 1 0 0] Kv=0.220 kW=14.95 PF= 0.92 conn=wye
! Tranformador de Distribuicao: F15272
New Load.6278811 Bus1=106792B1F15272.1.0 Phases=1 model=8 ZIPV=[0.5 0 0.5 1 0 0] Kv=0.127 kW=0.8 PF= 0.92 conn=wye
! Tranformador de Distribuicao: F16098
New Load.40196 Bus1=107090B1F16098.1.2.0 Phases=2 model=8 ZIPV=[0.5 0 0.5 1 0 0] Kv=0.220 kW=18.0 PF= 0.92 conn=wye
! Tranformador de Distribuicao: F16098
New Load.219873 Bus1=107090B1F16098.1.2.0 Phases=2 model=8 ZIPV=[0.5 0 0.5 1 0 0] Kv=0.220 kW=18.0 PF= 0.92 conn=wye
! Tranformador de Distribuicao: F16098
New Load.225742 Bus1=107090B1F16098.1.2.0 Phases=2 model=8 ZIPV=[0.5 0 0.5 1 0 0] Kv=0.220 kW=18.0 PF= 0.92 conn=wye
! Tranformador de Distribuicao: F16098
New Load.317869 Bus1=107090B1F16098.2.3.0 Phases=2 model=8 ZIPV=[0.5 0 0.5 1 0 0] Kv=0.220 kW=18.0 PF= 0.92 conn=wye
! Tranformador de Distribuicao: F16098
New Load.513087 Bus1=107090B1F16098.1.2.0 Phases=2 model=8 ZIPV=[0.5 0 0.5 1 0 0] Kv=0.220 kW=12.77 PF= 0.92 conn=wye
! Tranformador de Distribuicao: F16098
New Load.514073 Bus1=107090B1F16098.1.2.3.0 Phases=3 model=8 ZIPV=[0.5 0 0.5 1 0 0] Kv=0.220 kW=1.0 PF= 0.92 conn=wye
! Tranformador de Distribuicao: F16098
New Load.837852 Bus1=107090B1F16098.1.2.3.0 Phases=3 model=8 ZIPV=[0.5 0 0.5 1 0 0] Kv=0.220 kW=14.99 PF= 0.92 conn=wye
! Tranformador de Distribuicao: F16098
New Load.1285378 Bus1=107090B1F16098.1.2.0 Phases=2 model=8 ZIPV=[0.5 0 0.5 1 0 0] Kv=0.220 kW=10.13 PF= 0.92 conn=wye
! Tranformador de Distribuicao: F16098
New Load.1474359 Bus1=107090B1F16098.1.2.3.0 Phases=3 model=8 ZIPV=[0.5 0 0.5 1 0 0] Kv=0.220 kW=12.0 PF= 0.92 conn=wye
! Tranformador de Distribuicao: F16098
New Load.1528573 Bus1=107090B1F16098.1.2.0 Phases=2 model=8 ZIPV=[0.5 0 0.5 1 0 0] Kv=0.220 kW=15.0 PF= 0.92 conn=wye
! Tranformador de Distribuicao: F16098
New Load.1633326 Bus1=107090B1F16098.1.2.0 Phases=2 model=8 ZIPV=[0.5 0 0.5 1 0 0] Kv=0.220 kW=18.0 PF= 0.92 conn=wye
! Tranformador de Distribuicao: F16098
New Load.1712509 Bus1=107090B1F16098.1.2.0 Phases=2 model=8 ZIPV=[0.5 0 0.5 1 0 0] Kv=0.220 kW=9.65 PF= 0.92 conn=wye
! Tranformador de Distribuicao: F16098
New Load.1891168 Bus1=107090B1F16098.2.3.0 Phases=2 model=8 ZIPV=[0.5 0 0.5 1 0 0] Kv=0.220 kW=18.0 PF= 0.92 conn=wye
! Tranformador de Distribuicao: F16098
New Load.2259772 Bus1=107090B1F16098.3.1.0 Phases=2 model=8 ZIPV=[0.5 0 0.5 1 0 0] Kv=0.220 kW=18.0 PF= 0.92 conn=wye
! Tranformador de Distribuicao: F16098
New Load.2603590 Bus1=107090B1F16098.1.2.0 Phases=2 model=8 ZIPV=[0.5 0 0.5 1 0 0] Kv=0.220 kW=18.0 PF= 0.92 conn=wye
! Tranformador de Distribuicao: F16098
New Load.3005561 Bus1=107090B1F16098.2.3.0 Phases=2 model=8 ZIPV=[0.5 0 0.5 1 0 0] Kv=0.220 kW=18.0 PF= 0.92 conn=wye
! Tranformador de Distribuicao: F16098
New Load.3087636 Bus1=107090B1F16098.1.2.0 Phases=2 model=8 ZIPV=[0.5 0 0.5 1 0 0] Kv=0.220 kW=18.0 PF= 0.92 conn=wye
! Tranformador de Distribuicao: F16098
New Load.3554166 Bus1=107090B1F16098.3.0 Phases=1 model=8 ZIPV=[0.5 0 0.5 1 0 0] Kv=0.127 kW=2.64 PF= 0.92 conn=wye
! Tranformador de Distribuicao: F16098
New Load.3568496 Bus1=107090B1F16098.2.3.0 Phases=2 model=8 ZIPV=[0.5 0 0.5 1 0 0] Kv=0.220 kW=18.0 PF= 0.92 conn=wye
! Tranformador de Distribuicao: F16098
New Load.3996398 Bus1=107090B1F16098.1.2.0 Phases=2 model=8 ZIPV=[0.5 0 0.5 1 0 0] Kv=0.220 kW=1.0 PF= 0.92 conn=wye
! Tranformador de Distribuicao: F16098
New Load.4128400 Bus1=107090B1F16098.1.2.0 Phases=2 model=8 ZIPV=[0.5 0 0.5 1 0 0] Kv=0.220 kW=18.0 PF= 0.92 conn=wye
! Tranformador de Distribuicao: F16098
New Load.4442633 Bus1=107090B1F16098.2.3.0 Phases=2 model=8 ZIPV=[0.5 0 0.5 1 0 0] Kv=0.220 kW=18.0 PF= 0.92 conn=wye
! Tranformador de Distribuicao: F16098
New Load.4747691 Bus1=107090B1F16098.2.3.0 Phases=2 model=8 ZIPV=[0.5 0 0.5 1 0 0] Kv=0.220 kW=18.0 PF= 0.92 conn=wye
! Tranformador de Distribuicao: F16098
New Load.6043187 Bus1=107090B1F16098.1.2.3.0 Phases=3 model=8 ZIPV=[0.5 0 0.5 1 0 0] Kv=0.220 kW=1.0 PF= 0.92 conn=wye
! Tranformador de Distribuicao: F16098
New Load.6148863 Bus1=107090B1F16098.1.2.0 Phases=2 model=8 ZIPV=[0.5 0 0.5 1 0 0] Kv=0.220 kW=1.0 PF= 0.92 conn=wye
! Tranformador de Distribuicao: F16098
New Load.6202895 Bus1=107090B1F16098.1.2.3.0 Phases=3 model=8 ZIPV=[0.5 0 0.5 1 0 0] Kv=0.220 kW=15.0 PF= 0.92 conn=wye
! Tranformador de Distribuicao: F16826
New Load.214950 Bus1=107036B1F16826.1.0 Phases=1 model=8 ZIPV=[0.5 0 0.5 1 0 0] Kv=0.127 kW=2.0 PF= 0.92 conn=wye
! Tranformador de Distribuicao: F16826
New Load.398391 Bus1=107036B1F16826.1.2.3.0 Phases=3 model=8 ZIPV=[0.5 0 0.5 1 0 0] Kv=0.220 kW=12.85 PF= 0.92 conn=wye
! Tranformador de Distribuicao: F16826
New Load.399550 Bus1=107036B1F16826.2.0 Phases=1 model=8 ZIPV=[0.5 0 0.5 1 0 0] Kv=0.127 kW=2.5 PF= 0.92 conn=wye
! Tranformador de Distribuicao: F16826
New Load.581187 Bus1=107036B1F16826.1.2.0 Phases=2 model=8 ZIPV=[0.5 0 0.5 1 0 0] Kv=0.220 kW=2.87 PF= 0.92 conn=wye
! Tranformador de Distribuicao: F16826
New Load.653360 Bus1=107036B1F16826.1.2.0 Phases=2 model=8 ZIPV=[0.5 0 0.5 1 0 0] Kv=0.220 kW=5.0 PF= 0.92 conn=wye
! Tranformador de Distribuicao: F16826
New Load.852340 Bus1=107036B1F16826.1.0 Phases=1 model=8 ZIPV=[0.5 0 0.5 1 0 0] Kv=0.127 kW=2.0 PF= 0.92 conn=wye
! Tranformador de Distribuicao: F16826
New Load.1138400 Bus1=107036B1F16826.1.2.3.0 Phases=3 model=8 ZIPV=[0.5 0 0.5 1 0 0] Kv=0.220 kW=38.2 PF= 0.92 conn=wye
! Tranformador de Distribuicao: F16826
New Load.1624074 Bus1=107036B1F16826.1.0 Phases=1 model=8 ZIPV=[0.5 0 0.5 1 0 0] Kv=0.127 kW=2.5 PF= 0.92 conn=wye
! Tranformador de Distribuicao: F16826
New Load.1842804 Bus1=107036B1F16826.2.3.0 Phases=2 model=8 ZIPV=[0.5 0 0.5 1 0 0] Kv=0.220 kW=15.0 PF= 0.92 conn=wye
! Tranformador de Distribuicao: F16826
New Load.3380825 Bus1=107036B1F16826.2.0 Phases=1 model=8 ZIPV=[0.5 0 0.5 1 0 0] Kv=0.127 kW=1.9 PF= 0.92 conn=wye
! Tranformador de Distribuicao: F16826
New Load.3467354 Bus1=107036B1F16826.2.0 Phases=1 model=8 ZIPV=[0.5 0 0.5 1 0 0] Kv=0.127 kW=1.9 PF= 0.92 conn=wye
! Tranformador de Distribuicao: F16826
New Load.3536152 Bus1=107036B1F16826.1.0 Phases=1 model=8 ZIPV=[0.5 0 0.5 1 0 0] Kv=0.127 kW=2.0 PF= 0.92 conn=wye
! Tranformador de Distribuicao: F16826
New Load.3570577 Bus1=107036B1F16826.3.0 Phases=1 model=8 ZIPV=[0.5 0 0.5 1 0 0] Kv=0.127 kW=1.9 PF= 0.92 conn=wye
! Tranformador de Distribuicao: F16826
New Load.3838385 Bus1=107036B1F16826.3.0 Phases=1 model=8 ZIPV=[0.5 0 0.5 1 0 0] Kv=0.127 kW=2.2 PF= 0.92 conn=wye
! Tranformador de Distribuicao: F16826
New Load.4888641 Bus1=107036B1F16826.2.0 Phases=1 model=8 ZIPV=[0.5 0 0.5 1 0 0] Kv=0.127 kW=2.0 PF= 0.92 conn=wye
! Tranformador de Distribuicao: F16826
New Load.4929741 Bus1=107036B1F16826.1.0 Phases=1 model=8 ZIPV=[0.5 0 0.5 1 0 0] Kv=0.127 kW=2.0 PF= 0.92 conn=wye
! Tranformador de Distribuicao: F16826
New Load.5255085 Bus1=107036B1F16826.1.0 Phases=1 model=8 ZIPV=[0.5 0 0.5 1 0 0] Kv=0.127 kW=2.0 PF= 0.92 conn=wye
! Tranformador de Distribuicao: F16826
New Load.5578620 Bus1=107036B1F16826.2.0 Phases=1 model=8 ZIPV=[0.5 0 0.5 1 0 0] Kv=0.127 kW=2.23 PF= 0.92 conn=wye
! Tranformador de Distribuicao: F16826
New Load.5591213 Bus1=107036B1F16826.1.2.0 Phases=2 model=8 ZIPV=[0.5 0 0.5 1 0 0] Kv=0.220 kW=7.72 PF= 0.92 conn=wye
! Tranformador de Distribuicao: F16826
New Load.5729050 Bus1=107036B1F16826.1.0 Phases=1 model=8 ZIPV=[0.5 0 0.5 1 0 0] Kv=0.127 kW=2.0 PF= 0.92 conn=wye
! Tranformador de Distribuicao: F16826
New Load.5736539 Bus1=107036B1F16826.1.0 Phases=1 model=8 ZIPV=[0.5 0 0.5 1 0 0] Kv=0.127 kW=2.0 PF= 0.92 conn=wye
! Tranformador de Distribuicao: F16826
New Load.5840658 Bus1=107036B1F16826.1.2.3.0 Phases=3 model=8 ZIPV=[0.5 0 0.5 1 0 0] Kv=0.220 kW=45.16 PF= 0.92 conn=wye
! Tranformador de Distribuicao: F16826
New Load.5883832 Bus1=107036B1F16826.1.2.3.0 Phases=3 model=8 ZIPV=[0.5 0 0.5 1 0 0] Kv=0.220 kW=12.85 PF= 0.92 conn=wye
! Tranformador de Distribuicao: F16826
New Load.6006322 Bus1=107036B1F16826.1.2.0 Phases=2 model=8 ZIPV=[0.5 0 0.5 1 0 0] Kv=0.220 kW=6.75 PF= 0.92 conn=wye
! Tranformador de Distribuicao: F16826
New Load.6247559 Bus1=107036B1F16826.1.2.3.0 Phases=3 model=8 ZIPV=[0.5 0 0.5 1 0 0] Kv=0.220 kW=45.16 PF= 0.92 conn=wye
! Tranformador de Distribuicao: F18046
New Load.20152 Bus1=103375B1F18046.1.0 Phases=1 model=8 ZIPV=[0.5 0 0.5 1 0 0] Kv=0.127 kW=5.0 PF= 0.92 conn=wye
! Tranformador de Distribuicao: F18046
New Load.94581 Bus1=103375B1F18046.3.0 Phases=1 model=8 ZIPV=[0.5 0 0.5 1 0 0] Kv=0.127 kW=5.0 PF= 0.92 conn=wye
! Tranformador de Distribuicao: F18046
New Load.132290 Bus1=103375B1F18046.3.0 Phases=1 model=8 ZIPV=[0.5 0 0.5 1 0 0] Kv=0.127 kW=5.0 PF= 0.92 conn=wye
! Tranformador de Distribuicao: F18046
New Load.224087 Bus1=103375B1F18046.1.0 Phases=1 model=8 ZIPV=[0.5 0 0.5 1 0 0] Kv=0.127 kW=5.0 PF= 0.92 conn=wye
! Tranformador de Distribuicao: F18046
New Load.326200 Bus1=103375B1F18046.2.0 Phases=1 model=8 ZIPV=[0.5 0 0.5 1 0 0] Kv=0.127 kW=5.0 PF= 0.92 conn=wye
! Tranformador de Distribuicao: F18046
New Load.499583 Bus1=103375B1F18046.1.0 Phases=1 model=8 ZIPV=[0.5 0 0.5 1 0 0] Kv=0.127 kW=1.0 PF= 0.92 conn=wye
! Tranformador de Distribuicao: F18046
New Load.678501 Bus1=103375B1F18046.1.0 Phases=1 model=8 ZIPV=[0.5 0 0.5 1 0 0] Kv=0.127 kW=2.0 PF= 0.92 conn=wye
! Tranformador de Distribuicao: F18046
New Load.725517 Bus1=103375B1F18046.1.0 Phases=1 model=8 ZIPV=[0.5 0 0.5 1 0 0] Kv=0.127 kW=5.0 PF= 0.92 conn=wye
! Tranformador de Distribuicao: F18046
New Load.763621 Bus1=103375B1F18046.1.0 Phases=1 model=8 ZIPV=[0.5 0 0.5 1 0 0] Kv=0.127 kW=5.0 PF= 0.92 conn=wye
! Tranformador de Distribuicao: F18046
New Load.867096 Bus1=103375B1F18046.2.0 Phases=1 model=8 ZIPV=[0.5 0 0.5 1 0 0] Kv=0.127 kW=5.0 PF= 0.92 conn=wye
! Tranformador de Distribuicao: F18046
New Load.967352 Bus1=103375B1F18046.1.0 Phases=1 model=8 ZIPV=[0.5 0 0.5 1 0 0] Kv=0.127 kW=3.0 PF= 0.92 conn=wye
! Tranformador de Distribuicao: F18046
New Load.1031501 Bus1=103375B1F18046.1.0 Phases=1 model=8 ZIPV=[0.5 0 0.5 1 0 0] Kv=0.127 kW=7.09 PF= 0.92 conn=wye
! Tranformador de Distribuicao: F18046
New Load.1045248 Bus1=103375B1F18046.1.0 Phases=1 model=8 ZIPV=[0.5 0 0.5 1 0 0] Kv=0.127 kW=1.35 PF= 0.92 conn=wye
! Tranformador de Distribuicao: F18046
New Load.1060650 Bus1=103375B1F18046.2.0 Phases=1 model=8 ZIPV=[0.5 0 0.5 1 0 0] Kv=0.127 kW=5.0 PF= 0.92 conn=wye
! Tranformador de Distribuicao: F18046
New Load.1192248 Bus1=103375B1F18046.1.0 Phases=1 model=8 ZIPV=[0.5 0 0.5 1 0 0] Kv=0.127 kW=5.0 PF= 0.92 conn=wye
! Tranformador de Distribuicao: F18046
New Load.1204934 Bus1=103375B1F18046.3.0 Phases=1 model=8 ZIPV=[0.5 0 0.5 1 0 0] Kv=0.127 kW=1.0 PF= 0.92 conn=wye
! Tranformador de Distribuicao: F18046
New Load.1399944 Bus1=103375B1F18046.2.0 Phases=1 model=8 ZIPV=[0.5 0 0.5 1 0 0] Kv=0.127 kW=5.0 PF= 0.92 conn=wye
! Tranformador de Distribuicao: F18046
New Load.1414655 Bus1=103375B1F18046.3.0 Phases=1 model=8 ZIPV=[0.5 0 0.5 1 0 0] Kv=0.127 kW=2.0 PF= 0.92 conn=wye
! Tranformador de Distribuicao: F18046
New Load.1482527 Bus1=103375B1F18046.1.0 Phases=1 model=8 ZIPV=[0.5 0 0.5 1 0 0] Kv=0.127 kW=2.5 PF= 0.92 conn=wye
! Tranformador de Distribuicao: F18046
New Load.1760413 Bus1=103375B1F18046.2.0 Phases=1 model=8 ZIPV=[0.5 0 0.5 1 0 0] Kv=0.127 kW=5.0 PF= 0.92 conn=wye
! Tranformador de Distribuicao: F18046
New Load.1909564 Bus1=103375B1F18046.3.0 Phases=1 model=8 ZIPV=[0.5 0 0.5 1 0 0] Kv=0.127 kW=5.0 PF= 0.92 conn=wye
! Tranformador de Distribuicao: F18046
New Load.1923409 Bus1=103375B1F18046.2.0 Phases=1 model=8 ZIPV=[0.5 0 0.5 1 0 0] Kv=0.127 kW=5.0 PF= 0.92 conn=wye
! Tranformador de Distribuicao: F18046
New Load.1951154 Bus1=103375B1F18046.3.0 Phases=1 model=8 ZIPV=[0.5 0 0.5 1 0 0] Kv=0.127 kW=2.5 PF= 0.92 conn=wye
! Tranformador de Distribuicao: F18046
New Load.2005930 Bus1=103375B1F18046.1.0 Phases=1 model=8 ZIPV=[0.5 0 0.5 1 0 0] Kv=0.127 kW=5.0 PF= 0.92 conn=wye
! Tranformador de Distribuicao: F18046
New Load.2101705 Bus1=103375B1F18046.1.2.0 Phases=2 model=8 ZIPV=[0.5 0 0.5 1 0 0] Kv=0.220 kW=10.15 PF= 0.92 conn=wye
! Tranformador de Distribuicao: F18046
New Load.2554717 Bus1=103375B1F18046.1.0 Phases=1 model=8 ZIPV=[0.5 0 0.5 1 0 0] Kv=0.127 kW=5.0 PF= 0.92 conn=wye
! Tranformador de Distribuicao: F18046
New Load.2635711 Bus1=103375B1F18046.2.0 Phases=1 model=8 ZIPV=[0.5 0 0.5 1 0 0] Kv=0.127 kW=1.33 PF= 0.92 conn=wye
! Tranformador de Distribuicao: F18046
New Load.2643098 Bus1=103375B1F18046.2.0 Phases=1 model=8 ZIPV=[0.5 0 0.5 1 0 0] Kv=0.127 kW=5.0 PF= 0.92 conn=wye
! Tranformador de Distribuicao: F18046
New Load.2741279 Bus1=103375B1F18046.3.0 Phases=1 model=8 ZIPV=[0.5 0 0.5 1 0 0] Kv=0.127 kW=5.0 PF= 0.92 conn=wye
! Tranformador de Distribuicao: F18046
New Load.2856880 Bus1=103375B1F18046.2.0 Phases=1 model=8 ZIPV=[0.5 0 0.5 1 0 0] Kv=0.127 kW=5.0 PF= 0.92 conn=wye
! Tranformador de Distribuicao: F18046
New Load.2874307 Bus1=103375B1F18046.1.0 Phases=1 model=8 ZIPV=[0.5 0 0.5 1 0 0] Kv=0.127 kW=5.0 PF= 0.92 conn=wye
! Tranformador de Distribuicao: F18046
New Load.2940816 Bus1=103375B1F18046.3.0 Phases=1 model=8 ZIPV=[0.5 0 0.5 1 0 0] Kv=0.127 kW=3.0 PF= 0.92 conn=wye
! Tranformador de Distribuicao: F18046
New Load.2940972 Bus1=103375B1F18046.1.0 Phases=1 model=8 ZIPV=[0.5 0 0.5 1 0 0] Kv=0.127 kW=5.0 PF= 0.92 conn=wye
! Tranformador de Distribuicao: F18046
New Load.3136419 Bus1=103375B1F18046.1.0 Phases=1 model=8 ZIPV=[0.5 0 0.5 1 0 0] Kv=0.127 kW=0.04 PF= 0.92 conn=wye
! Tranformador de Distribuicao: F18046
New Load.3172280 Bus1=103375B1F18046.1.0 Phases=1 model=8 ZIPV=[0.5 0 0.5 1 0 0] Kv=0.127 kW=5.0 PF= 0.92 conn=wye
! Tranformador de Distribuicao: F18046
New Load.3183609 Bus1=103375B1F18046.1.0 Phases=1 model=8 ZIPV=[0.5 0 0.5 1 0 0] Kv=0.127 kW=2.5 PF= 0.92 conn=wye
! Tranformador de Distribuicao: F18046
New Load.3185803 Bus1=103375B1F18046.2.0 Phases=1 model=8 ZIPV=[0.5 0 0.5 1 0 0] Kv=0.127 kW=2.0 PF= 0.92 conn=wye
! Tranformador de Distribuicao: F18046
New Load.3313733 Bus1=103375B1F18046.1.0 Phases=1 model=8 ZIPV=[0.5 0 0.5 1 0 0] Kv=0.127 kW=5.0 PF= 0.92 conn=wye
! Tranformador de Distribuicao: F18046
New Load.3342584 Bus1=103375B1F18046.3.0 Phases=1 model=8 ZIPV=[0.5 0 0.5 1 0 0] Kv=0.127 kW=5.0 PF= 0.92 conn=wye
! Tranformador de Distribuicao: F18046
New Load.3361563 Bus1=103375B1F18046.1.0 Phases=1 model=8 ZIPV=[0.5 0 0.5 1 0 0] Kv=0.127 kW=5.0 PF= 0.92 conn=wye
! Tranformador de Distribuicao: F18046
New Load.3412544 Bus1=103375B1F18046.1.0 Phases=1 model=8 ZIPV=[0.5 0 0.5 1 0 0] Kv=0.127 kW=5.0 PF= 0.92 conn=wye
! Tranformador de Distribuicao: F18046
New Load.3429212 Bus1=103375B1F18046.1.0 Phases=1 model=8 ZIPV=[0.5 0 0.5 1 0 0] Kv=0.127 kW=5.0 PF= 0.92 conn=wye
! Tranformador de Distribuicao: F18046
New Load.3449842 Bus1=103375B1F18046.1.0 Phases=1 model=8 ZIPV=[0.5 0 0.5 1 0 0] Kv=0.127 kW=5.0 PF= 0.92 conn=wye
! Tranformador de Distribuicao: F18046
New Load.3505691 Bus1=103375B1F18046.1.0 Phases=1 model=8 ZIPV=[0.5 0 0.5 1 0 0] Kv=0.127 kW=5.0 PF= 0.92 conn=wye
! Tranformador de Distribuicao: F18046
New Load.3594663 Bus1=103375B1F18046.2.0 Phases=1 model=8 ZIPV=[0.5 0 0.5 1 0 0] Kv=0.127 kW=5.0 PF= 0.92 conn=wye
! Tranformador de Distribuicao: F18046
New Load.3649377 Bus1=103375B1F18046.1.0 Phases=1 model=8 ZIPV=[0.5 0 0.5 1 0 0] Kv=0.220 kW=8.0 PF= 0.92 conn=wye
! Tranformador de Distribuicao: F18046
New Load.3662688 Bus1=103375B1F18046.1.0 Phases=1 model=8 ZIPV=[0.5 0 0.5 1 0 0] Kv=0.127 kW=5.0 PF= 0.92 conn=wye
! Tranformador de Distribuicao: F18046
New Load.3704334 Bus1=103375B1F18046.3.0 Phases=1 model=8 ZIPV=[0.5 0 0.5 1 0 0] Kv=0.127 kW=5.0 PF= 0.92 conn=wye
! Tranformador de Distribuicao: F18046
New Load.3725513 Bus1=103375B1F18046.1.0 Phases=1 model=8 ZIPV=[0.5 0 0.5 1 0 0] Kv=0.127 kW=5.0 PF= 0.92 conn=wye
! Tranformador de Distribuicao: F18046
New Load.3748898 Bus1=103375B1F18046.1.0 Phases=1 model=8 ZIPV=[0.5 0 0.5 1 0 0] Kv=0.220 kW=11.95 PF= 0.92 conn=wye
! Tranformador de Distribuicao: F18046
New Load.3752859 Bus1=103375B1F18046.1.0 Phases=1 model=8 ZIPV=[0.5 0 0.5 1 0 0] Kv=0.127 kW=5.0 PF= 0.92 conn=wye
! Tranformador de Distribuicao: F18046
New Load.3853118 Bus1=103375B1F18046.2.0 Phases=1 model=8 ZIPV=[0.5 0 0.5 1 0 0] Kv=0.127 kW=5.0 PF= 0.92 conn=wye
! Tranformador de Distribuicao: F18046
New Load.3854141 Bus1=103375B1F18046.1.0 Phases=1 model=8 ZIPV=[0.5 0 0.5 1 0 0] Kv=0.127 kW=5.26 PF= 0.92 conn=wye
! Tranformador de Distribuicao: F18046
New Load.3859022 Bus1=103375B1F18046.1.0 Phases=1 model=8 ZIPV=[0.5 0 0.5 1 0 0] Kv=0.127 kW=5.0 PF= 0.92 conn=wye
! Tranformador de Distribuicao: F18046
New Load.3926241 Bus1=103375B1F18046.3.0 Phases=1 model=8 ZIPV=[0.5 0 0.5 1 0 0] Kv=0.127 kW=3.0 PF= 0.92 conn=wye
! Tranformador de Distribuicao: F18046
New Load.4023589 Bus1=103375B1F18046.1.0 Phases=1 model=8 ZIPV=[0.5 0 0.5 1 0 0] Kv=0.127 kW=5.0 PF= 0.92 conn=wye
! Tranformador de Distribuicao: F18046
New Load.4052286 Bus1=103375B1F18046.3.0 Phases=1 model=8 ZIPV=[0.5 0 0.5 1 0 0] Kv=0.127 kW=6.26 PF= 0.92 conn=wye
! Tranformador de Distribuicao: F18046
New Load.4097422 Bus1=103375B1F18046.1.0 Phases=1 model=8 ZIPV=[0.5 0 0.5 1 0 0] Kv=0.127 kW=3.3 PF= 0.92 conn=wye
! Tranformador de Distribuicao: F18046
New Load.4176495 Bus1=103375B1F18046.1.0 Phases=1 model=8 ZIPV=[0.5 0 0.5 1 0 0] Kv=0.127 kW=5.0 PF= 0.92 conn=wye
! Tranformador de Distribuicao: F18046
New Load.4177127 Bus1=103375B1F18046.3.0 Phases=1 model=8 ZIPV=[0.5 0 0.5 1 0 0] Kv=0.127 kW=3.0 PF= 0.92 conn=wye
! Tranformador de Distribuicao: F18046
New Load.4296737 Bus1=103375B1F18046.3.0 Phases=1 model=8 ZIPV=[0.5 0 0.5 1 0 0] Kv=0.127 kW=5.0 PF= 0.92 conn=wye
! Tranformador de Distribuicao: F18046
New Load.4534292 Bus1=103375B1F18046.1.0 Phases=1 model=8 ZIPV=[0.5 0 0.5 1 0 0] Kv=0.127 kW=5.0 PF= 0.92 conn=wye
! Tranformador de Distribuicao: F18046
New Load.4629528 Bus1=103375B1F18046.3.0 Phases=1 model=8 ZIPV=[0.5 0 0.5 1 0 0] Kv=0.127 kW=5.0 PF= 0.92 conn=wye
! Tranformador de Distribuicao: F18046
New Load.4638105 Bus1=103375B1F18046.2.0 Phases=1 model=8 ZIPV=[0.5 0 0.5 1 0 0] Kv=0.127 kW=5.0 PF= 0.92 conn=wye
! Tranformador de Distribuicao: F18046
New Load.4759768 Bus1=103375B1F18046.1.0 Phases=1 model=8 ZIPV=[0.5 0 0.5 1 0 0] Kv=0.127 kW=5.0 PF= 0.92 conn=wye
! Tranformador de Distribuicao: F18046
New Load.5000315 Bus1=103375B1F18046.1.0 Phases=1 model=8 ZIPV=[0.5 0 0.5 1 0 0] Kv=0.127 kW=5.0 PF= 0.92 conn=wye
! Tranformador de Distribuicao: F18046
New Load.5027818 Bus1=103375B1F18046.1.0 Phases=1 model=8 ZIPV=[0.5 0 0.5 1 0 0] Kv=0.127 kW=5.0 PF= 0.92 conn=wye
! Tranformador de Distribuicao: F18046
New Load.5065992 Bus1=103375B1F18046.1.0 Phases=1 model=8 ZIPV=[0.5 0 0.5 1 0 0] Kv=0.127 kW=5.0 PF= 0.92 conn=wye
! Tranformador de Distribuicao: F18046
New Load.5241444 Bus1=103375B1F18046.1.0 Phases=1 model=8 ZIPV=[0.5 0 0.5 1 0 0] Kv=0.127 kW=5.0 PF= 0.92 conn=wye
! Tranformador de Distribuicao: F18046
New Load.5256441 Bus1=103375B1F18046.2.0 Phases=1 model=8 ZIPV=[0.5 0 0.5 1 0 0] Kv=0.127 kW=2.0 PF= 0.92 conn=wye
! Tranformador de Distribuicao: F18046
New Load.5297281 Bus1=103375B1F18046.1.0 Phases=1 model=8 ZIPV=[0.5 0 0.5 1 0 0] Kv=0.127 kW=5.0 PF= 0.92 conn=wye
! Tranformador de Distribuicao: F18046
New Load.5302062 Bus1=103375B1F18046.1.0 Phases=1 model=8 ZIPV=[0.5 0 0.5 1 0 0] Kv=0.127 kW=5.0 PF= 0.92 conn=wye
! Tranformador de Distribuicao: F18046
New Load.5304631 Bus1=103375B1F18046.1.0 Phases=1 model=8 ZIPV=[0.5 0 0.5 1 0 0] Kv=0.127 kW=5.0 PF= 0.92 conn=wye
! Tranformador de Distribuicao: F18046
New Load.5308167 Bus1=103375B1F18046.1.0 Phases=1 model=8 ZIPV=[0.5 0 0.5 1 0 0] Kv=0.127 kW=2.0 PF= 0.92 conn=wye
! Tranformador de Distribuicao: F18046
New Load.5387106 Bus1=103375B1F18046.1.0 Phases=1 model=8 ZIPV=[0.5 0 0.5 1 0 0] Kv=0.127 kW=3.0 PF= 0.92 conn=wye
! Tranformador de Distribuicao: F18046
New Load.5478611 Bus1=103375B1F18046.1.0 Phases=1 model=8 ZIPV=[0.5 0 0.5 1 0 0] Kv=0.127 kW=3.0 PF= 0.92 conn=wye
! Tranformador de Distribuicao: F18046
New Load.5480637 Bus1=103375B1F18046.1.0 Phases=1 model=8 ZIPV=[0.5 0 0.5 1 0 0] Kv=0.127 kW=1.6 PF= 0.92 conn=wye
! Tranformador de Distribuicao: F18046
New Load.5562495 Bus1=103375B1F18046.1.0 Phases=1 model=8 ZIPV=[0.5 0 0.5 1 0 0] Kv=0.127 kW=5.0 PF= 0.92 conn=wye
! Tranformador de Distribuicao: F18046
New Load.5575005 Bus1=103375B1F18046.2.0 Phases=1 model=8 ZIPV=[0.5 0 0.5 1 0 0] Kv=0.127 kW=5.0 PF= 0.92 conn=wye
! Tranformador de Distribuicao: F18046
New Load.5586822 Bus1=103375B1F18046.3.0 Phases=1 model=8 ZIPV=[0.5 0 0.5 1 0 0] Kv=0.127 kW=3.05 PF= 0.92 conn=wye
! Tranformador de Distribuicao: F18046
New Load.5591788 Bus1=103375B1F18046.1.0 Phases=1 model=8 ZIPV=[0.5 0 0.5 1 0 0] Kv=0.127 kW=5.0 PF= 0.92 conn=wye
! Tranformador de Distribuicao: F18046
New Load.5718424 Bus1=103375B1F18046.1.0 Phases=1 model=8 ZIPV=[0.5 0 0.5 1 0 0] Kv=0.127 kW=5.0 PF= 0.92 conn=wye
! Tranformador de Distribuicao: F18046
New Load.5788255 Bus1=103375B1F18046.1.0 Phases=1 model=8 ZIPV=[0.5 0 0.5 1 0 0] Kv=0.127 kW=5.0 PF= 0.92 conn=wye
! Tranformador de Distribuicao: F18046
New Load.5823658 Bus1=103375B1F18046.1.0 Phases=1 model=8 ZIPV=[0.5 0 0.5 1 0 0] Kv=0.127 kW=5.0 PF= 0.92 conn=wye
! Tranformador de Distribuicao: F18046
New Load.5833354 Bus1=103375B1F18046.1.0 Phases=1 model=8 ZIPV=[0.5 0 0.5 1 0 0] Kv=0.127 kW=3.79 PF= 0.92 conn=wye
! Tranformador de Distribuicao: F18046
New Load.6041436 Bus1=103375B1F18046.1.0 Phases=1 model=8 ZIPV=[0.5 0 0.5 1 0 0] Kv=0.127 kW=2.0 PF= 0.92 conn=wye
! Tranformador de Distribuicao: F18046
New Load.6266692 Bus1=103375B1F18046.1.0 Phases=1 model=8 ZIPV=[0.5 0 0.5 1 0 0] Kv=0.127 kW=5.0 PF= 0.92 conn=wye
! Tranformador de Distribuicao: F18046
New Load.6281955 Bus1=103375B1F18046.1.0 Phases=1 model=8 ZIPV=[0.5 0 0.5 1 0 0] Kv=0.127 kW=5.0 PF= 0.92 conn=wye
! Tranformador de Distribuicao: F18466
New Load.33218 Bus1=106840B1F18466.1.0 Phases=1 model=8 ZIPV=[0.5 0 0.5 1 0 0] Kv=0.127 kW=9.0 PF= 0.92 conn=wye
! Tranformador de Distribuicao: F18466
New Load.38669 Bus1=106840B1F18466.2.0 Phases=1 model=8 ZIPV=[0.5 0 0.5 1 0 0] Kv=0.127 kW=4.0 PF= 0.92 conn=wye
! Tranformador de Distribuicao: F18466
New Load.73294 Bus1=106840B1F18466.1.0 Phases=1 model=8 ZIPV=[0.5 0 0.5 1 0 0] Kv=0.127 kW=2.0 PF= 0.92 conn=wye
! Tranformador de Distribuicao: F18466
New Load.119128 Bus1=106840B1F18466.3.0 Phases=1 model=8 ZIPV=[0.5 0 0.5 1 0 0] Kv=0.127 kW=1.0 PF= 0.92 conn=wye
! Tranformador de Distribuicao: F18466
New Load.180712 Bus1=106840B1F18466.2.0 Phases=1 model=8 ZIPV=[0.5 0 0.5 1 0 0] Kv=0.127 kW=2.0 PF= 0.92 conn=wye
! Tranformador de Distribuicao: F18466
New Load.214295 Bus1=106840B1F18466.3.0 Phases=1 model=8 ZIPV=[0.5 0 0.5 1 0 0] Kv=0.127 kW=2.0 PF= 0.92 conn=wye
! Tranformador de Distribuicao: F18466
New Load.266982 Bus1=106840B1F18466.3.0 Phases=1 model=8 ZIPV=[0.5 0 0.5 1 0 0] Kv=0.127 kW=2.0 PF= 0.92 conn=wye
! Tranformador de Distribuicao: F18466
New Load.299891 Bus1=106840B1F18466.3.0 Phases=1 model=8 ZIPV=[0.5 0 0.5 1 0 0] Kv=0.127 kW=3.37 PF= 0.92 conn=wye
! Tranformador de Distribuicao: F18466
New Load.336582 Bus1=106840B1F18466.3.0 Phases=1 model=8 ZIPV=[0.5 0 0.5 1 0 0] Kv=0.127 kW=2.0 PF= 0.92 conn=wye
! Tranformador de Distribuicao: F18466
New Load.388919 Bus1=106840B1F18466.2.0 Phases=1 model=8 ZIPV=[0.5 0 0.5 1 0 0] Kv=0.127 kW=2.0 PF= 0.92 conn=wye
! Tranformador de Distribuicao: F18466
New Load.397443 Bus1=106840B1F18466.3.0 Phases=1 model=8 ZIPV=[0.5 0 0.5 1 0 0] Kv=0.127 kW=1.93 PF= 0.92 conn=wye
! Tranformador de Distribuicao: F18466
New Load.484576 Bus1=106840B1F18466.1.0 Phases=1 model=8 ZIPV=[0.5 0 0.5 1 0 0] Kv=0.127 kW=5.0 PF= 0.92 conn=wye
! Tranformador de Distribuicao: F18466
New Load.490402 Bus1=106840B1F18466.1.0 Phases=1 model=8 ZIPV=[0.5 0 0.5 1 0 0] Kv=0.127 kW=1.0 PF= 0.92 conn=wye
! Tranformador de Distribuicao: F18466
New Load.531782 Bus1=106840B1F18466.2.0 Phases=1 model=8 ZIPV=[0.5 0 0.5 1 0 0] Kv=0.127 kW=1.5 PF= 0.92 conn=wye
! Tranformador de Distribuicao: F18466
New Load.610537 Bus1=106840B1F18466.3.0 Phases=1 model=8 ZIPV=[0.5 0 0.5 1 0 0] Kv=0.127 kW=2.0 PF= 0.92 conn=wye
! Tranformador de Distribuicao: F18466
New Load.648464 Bus1=106840B1F18466.1.0 Phases=1 model=8 ZIPV=[0.5 0 0.5 1 0 0] Kv=0.127 kW=3.09 PF= 0.92 conn=wye
! Tranformador de Distribuicao: F18466
New Load.653440 Bus1=106840B1F18466.2.0 Phases=1 model=8 ZIPV=[0.5 0 0.5 1 0 0] Kv=0.127 kW=2.0 PF= 0.92 conn=wye
! Tranformador de Distribuicao: F18466
New Load.658212 Bus1=106840B1F18466.1.0 Phases=1 model=8 ZIPV=[0.5 0 0.5 1 0 0] Kv=0.127 kW=2.15 PF= 0.92 conn=wye
! Tranformador de Distribuicao: F18466
New Load.708286 Bus1=106840B1F18466.2.0 Phases=1 model=8 ZIPV=[0.5 0 0.5 1 0 0] Kv=0.127 kW=2.09 PF= 0.92 conn=wye
! Tranformador de Distribuicao: F18466
New Load.819403 Bus1=106840B1F18466.3.0 Phases=1 model=8 ZIPV=[0.5 0 0.5 1 0 0] Kv=0.127 kW=2.0 PF= 0.92 conn=wye
! Tranformador de Distribuicao: F18466
New Load.831280 Bus1=106840B1F18466.3.0 Phases=1 model=8 ZIPV=[0.5 0 0.5 1 0 0] Kv=0.127 kW=2.5 PF= 0.92 conn=wye
! Tranformador de Distribuicao: F18466
New Load.883619 Bus1=106840B1F18466.3.0 Phases=1 model=8 ZIPV=[0.5 0 0.5 1 0 0] Kv=0.127 kW=2.0 PF= 0.92 conn=wye
! Tranformador de Distribuicao: F18466
New Load.940667 Bus1=106840B1F18466.3.0 Phases=1 model=8 ZIPV=[0.5 0 0.5 1 0 0] Kv=0.127 kW=2.0 PF= 0.92 conn=wye
! Tranformador de Distribuicao: F18466
New Load.958229 Bus1=106840B1F18466.2.0 Phases=1 model=8 ZIPV=[0.5 0 0.5 1 0 0] Kv=0.127 kW=1.5 PF= 0.92 conn=wye
! Tranformador de Distribuicao: F18466
New Load.960455 Bus1=106840B1F18466.3.0 Phases=1 model=8 ZIPV=[0.5 0 0.5 1 0 0] Kv=0.127 kW=2.0 PF= 0.92 conn=wye
! Tranformador de Distribuicao: F18466
New Load.1012155 Bus1=106840B1F18466.1.0 Phases=1 model=8 ZIPV=[0.5 0 0.5 1 0 0] Kv=0.127 kW=2.0 PF= 0.92 conn=wye
! Tranformador de Distribuicao: F18466
New Load.1013958 Bus1=106840B1F18466.3.0 Phases=1 model=8 ZIPV=[0.5 0 0.5 1 0 0] Kv=0.127 kW=2.0 PF= 0.92 conn=wye
! Tranformador de Distribuicao: F18466
New Load.1015488 Bus1=106840B1F18466.1.0 Phases=1 model=8 ZIPV=[0.5 0 0.5 1 0 0] Kv=0.127 kW=2.0 PF= 0.92 conn=wye
! Tranformador de Distribuicao: F18466
New Load.1015505 Bus1=106840B1F18466.1.0 Phases=1 model=8 ZIPV=[0.5 0 0.5 1 0 0] Kv=0.127 kW=5.0 PF= 0.92 conn=wye
! Tranformador de Distribuicao: F18466
New Load.1027771 Bus1=106840B1F18466.3.0 Phases=1 model=8 ZIPV=[0.5 0 0.5 1 0 0] Kv=0.127 kW=1.0 PF= 0.92 conn=wye
! Tranformador de Distribuicao: F18466
New Load.1063651 Bus1=106840B1F18466.3.0 Phases=1 model=8 ZIPV=[0.5 0 0.5 1 0 0] Kv=0.127 kW=1.68 PF= 0.92 conn=wye
! Tranformador de Distribuicao: F18466
New Load.1069023 Bus1=106840B1F18466.2.0 Phases=1 model=8 ZIPV=[0.5 0 0.5 1 0 0] Kv=0.127 kW=2.05 PF= 0.92 conn=wye
...