IMB01J2_Cenarios/PVSystems.dss
New PVSystem.PV0 phases=1 Bus1=106746b1f58371.3.0 kV=0.127 kVA=6.24 Pmpp=6.24 conn=wye PF = 1 %cutin = 0.00005 %cutout = 0.00005 effcurve = Myeff P-TCurve = MyPvsT Daily = MyIrrad TDaily = Mytemp 
New PVSystem.PV1 phases=2 Bus1=107069b1f21940.2.3.0 kV=0.22 kVA=24.1 Pmpp=24.1 conn=wye PF = 1 %cutin = 0.00005 %cutout = 0.00005 effcurve = Myeff P-TCurve = MyPvsT Daily = MyIrrad TDaily = Mytemp 
New PVSystem.PV2 phases=1 Bus1=106792b1f15272.1.0 kV=0.127 kVA=4.82 Pmpp=4.82 conn=wye PF = 1 %cutin = 0.00005 %cutout = 0.00005 effcurve = Myeff P-TCurve = MyPvsT Daily = MyIrrad TDaily = Mytemp 
New PVSystem.PV3 phases=1 Bus1=600471b0f24167.1.0 kV=0.22 kVA=30.11 Pmpp=30.11 conn=wye PF = 1 %cutin = 0.00005 %cutout = 0.00005 effcurve = Myeff P-TCurve = MyPvsT Daily = MyIrrad TDaily = Mytemp 
New PVSystem.PV4 phases=3 Bus1=107174m3009.1.2.3.0 kV=11.4 kVA=165.98 Pmpp=165.98 conn=wye PF = 1 %cutin = 0.00005 %cutout = 0.00005 effcurve = Myeff P-TCurve = MyPvsT Daily = MyIrrad TDaily = Mytemp 
New PVSystem.PV5 phases=2 Bus1=12428741b1f23062.2.3.0 kV=0.22 kVA=35.94 Pmpp=35.94 conn=wye PF = 1 %cutin = 0.00005 %cutout = 0.00005 effcurve = Myeff P-TCurve = MyPvsT Daily = MyIrrad TDaily = Mytemp 
New PVSystem.PV6 phases=2 Bus1=107224b1f26939.1.2.0 kV=0.22 kVA=29.16 Pmpp=29.16 conn=wye PF = 1 %cutin = 0.00005 %cutout = 0.00005 effcurve = Myeff P-TCurve = MyPvsT Daily = MyIrrad TDaily = Mytemp 
New PVSystem.PV7 phases=1 Bus1=106792b1f15272.1.0 kV=0.127 kVA=7.46 Pmpp=7.46 conn=wye PF = 1 %cutin = 0.00005 %cutout = 0.00005 effcurve = Myeff P-TCurve = MyPvsT Daily = MyIrrad TDaily = Mytemp 
New PVSystem.PV8 phases=1 Bus1=106792b1f15272.3.0 kV=0.127 kVA=6.84 Pmpp=6.84 conn=wye PF = 1 %cutin = 0.00005 %cutout = 0.00005 effcurve = Myeff P-TCurve = MyPvsT Daily = MyIrrad TDaily = Mytemp 
New PVSystem.PV9 phases=2 Bus1=12675087b0f53190.2.3.0 kV=0.22 kVA=38.29 Pmpp=38.29 conn=wye PF = 1 %cutin = 0.00005 %cutout = 0.00005 effcurve = Myeff P-TCurve = MyPvsT Daily = MyIrrad TDaily = Mytemp 
New PVSystem.PV10 phases=2 Bus1=107003b1f21555.3.1.0 kV=0.22 kVA=28.26 Pmpp=28.26 conn=wye PF = 1 %cutin = 0.00005 %cutout = 0.00005 effcurve = Myeff P-TCurve = MyPvsT Daily = MyIrrad TDaily = Mytemp 
New PVSystem.PV11 phases=3 Bus1=106825b1f21415.1.2.3.0 kV=0.22 kVA=79.04 Pmpp=79.04 conn=wye PF = 1 %cutin = 0.00005 %cutout = 0.00005 effcurve = Myeff P-TCurve = MyPvsT Daily = MyIrrad TDaily = Mytemp 
New PVSystem.PV12 phases=3 Bus1=107069b1f21940.1.2.3.0 kV=0.22 kVA=36.56 Pmpp=36.56 conn=wye PF = 1 %cutin = 0.00005 %cutout = 0.00005 effcurve = Myeff P-TCurve = MyPvsT Daily = MyIrrad TDaily = Mytemp 
New PVSystem.PV13 phases=3 Bus1=106977b1500594.1.2.3.0 kV=0.22 kVA=63.04 Pmpp=63.04 conn=wye PF = 1 %cutin = 0.00005 %cutout = 0.00005 effcurve = Myeff P-TCurve = MyPvsT Daily = MyIrrad TDaily = Mytemp 
New PVSystem.PV14 phases=2 Bus1=107224b1f26939.2.3.0 kV=0.22 kVA=26.59 Pmpp=26.59 conn=wye PF = 1 %cutin = 0.00005 %cutout = 0.00005 effcurve = Myeff P-TCurve = MyPvsT Daily = MyIrrad TDaily = Mytemp 
New PVSystem.PV15 phases=3 Bus1=107021b1f38600.1.2.3.0 kV=0.22 kVA=32.85 Pmpp=32.85 conn=wye PF = 1 %cutin = 0.00005 %cutout = 0.00005 effcurve = Myeff P-TCurve = MyPvsT Daily = MyIrrad TDaily = Mytemp 
New PVSystem.PV16 phases=2 Bus1=107224b1f26939.3.1.0 kV=0.22 kVA=27.49 Pmpp=27.49 conn=wye PF = 1 %cutin = 0.00005 %cutout = 0.00005 effcurve = Myeff P-TCurve = MyPvsT Daily = MyIrrad TDaily = Mytemp 
New PVSystem.PV17 phases=3 Bus1=12546355m3009.1.2.3.0 kV=11.4 kVA=739.32 Pmpp=739.32 conn=wye PF = 1 %cutin = 0.00005 %cutout = 0.00005 effcurve = Myeff P-TCurve = MyPvsT Daily = MyIrrad TDaily = Mytemp 
New PVSystem.PV18 phases=2 Bus1=107069b1f21940.1.2.0 kV=0.22 kVA=31.21 Pmpp=31.21 conn=wye PF = 1 %cutin = 0.00005 %cutout = 0.00005 effcurve = Myeff P-TCurve = MyPvsT Daily = MyIrrad TDaily = Mytemp 
New PVSystem.PV19 phases=1 Bus1=106980b1f19790.3.0 kV=0.127 kVA=10.57 Pmpp=10.57 conn=wye PF = 1 %cutin = 0.00005 %cutout = 0.00005 effcurve = Myeff P-TCurve = MyPvsT Daily = MyIrrad TDaily = Mytemp 
New PVSystem.PV20 phases=3 Bus1=504593m3009.1.2.3.0 kV=11.4 kVA=128.73 Pmpp=128.73 conn=wye PF = 1 %cutin = 0.00005 %cutout = 0.00005 effcurve = Myeff P-TCurve = MyPvsT Daily = MyIrrad TDaily = Mytemp 
New PVSystem.PV21 phases=3 Bus1=12428741b1f23062.1.2.3.0 kV=0.22 kVA=54.84 Pmpp=54.84 conn=wye PF = 1 %cutin = 0.00005 %cutout = 0.00005 effcurve = Myeff P-TCurve = MyPvsT Daily = MyIrrad TDaily = Mytemp 
New PVSystem.PV22 phases=2 Bus1=12428741b1f23062.3.1.0 kV=0.22 kVA=35.94 Pmpp=35.94 conn=wye PF = 1 %cutin = 0.00005 %cutout = 0.00005 effcurve = Myeff P-TCurve = MyPvsT Daily = MyIrrad TDaily = Mytemp 
New PVSystem.PV23 phases=3 Bus1=12423346m3009.1.2.3.0 kV=11.4 kVA=254.8 Pmpp=254.8 conn=wye PF = 1 %cutin = 0.00005 %cutout = 0.00005 effcurve = Myeff P-TCurve = MyPvsT Daily = MyIrrad TDaily = Mytemp 
New PVSystem.PV24 phases=2 Bus1=12232201b0f48507.1.2.0 kV=0.22 kVA=26.59 Pmpp=26.59 conn=wye PF = 1 %cutin = 0.00005 %cutout = 0.00005 effcurve = Myeff P-TCurve = MyPvsT Daily = MyIrrad TDaily = Mytemp 
New PVSystem.PV25 phases=2 Bus1=12675087b0f53190.3.1.0 kV=0.22 kVA=17.46 Pmpp=17.46 conn=wye PF = 1 %cutin = 0.00005 %cutout = 0.00005 effcurve = Myeff P-TCurve = MyPvsT Daily = MyIrrad TDaily = Mytemp 
New PVSystem.PV26 phases=1 Bus1=106746b1f58371.1.0 kV=0.127 kVA=6.98 Pmpp=6.98 conn=wye PF = 1 %cutin = 0.00005 %cutout = 0.00005 effcurve = Myeff P-TCurve = MyPvsT Daily = MyIrrad TDaily = Mytemp 
New PVSystem.PV27 phases=1 Bus1=106825b1f21415.2.0 kV=0.127 kVA=8.21 Pmpp=8.21 conn=wye PF = 1 %cutin = 0.00005 %cutout = 0.00005 effcurve = Myeff P-TCurve = MyPvsT Daily = MyIrrad TDaily = Mytemp 
New PVSystem.PV28 phases=3 Bus1=106746m3009.1.2.3.0 kV=11.4 kVA=293.81 Pmpp=293.81 conn=wye PF = 1 %cutin = 0.00005 %cutout = 0.00005 effcurve = Myeff P-TCurve = MyPvsT Daily = MyIrrad TDaily = Mytemp 
New PVSystem.PV29 phases=2 Bus1=107224b1f26939.2.3.0 kV=0.22 kVA=22.07 Pmpp=22.07 conn=wye PF = 1 %cutin = 0.00005 %cutout = 0.00005 effcurve = Myeff P-TCurve = MyPvsT Daily = MyIrrad TDaily = Mytemp 
New PVSystem.PV30 phases=2 Bus1=12232201b0f48507.2.3.0 kV=0.22 kVA=36.57 Pmpp=36.57 conn=wye PF = 1 %cutin = 0.00005 %cutout = 0.00005 effcurve = Myeff P-TCurve = MyPvsT Daily = MyIrrad TDaily = Mytemp 
New PVSystem.PV31 phases=2 Bus1=12232201b0f48507.3.1.0 kV=0.22 kVA=31.69 Pmpp=31.69 conn=wye PF = 1 %cutin = 0.00005 %cutout = 0.00005 effcurve = Myeff P-TCurve = MyPvsT Daily = MyIrrad TDaily = Mytemp 
New PVSystem.PV32 phases=3 Bus1=458904b0f26466.1.2.3.0 kV=0.22 kVA=161.58 Pmpp=161.58 conn=wye PF = 1 %cutin = 0.00005 %cutout = 0.00005 effcurve = Myeff P-TCurve = MyPvsT Daily = MyIrrad TDaily = Mytemp 
New PVSystem.PV33 phases=3 Bus1=106977b1500594.1.2.3.0 kV=0.22 kVA=27.42 Pmpp=27.42 conn=wye PF = 1 %cutin = 0.00005 %cutout = 0.00005 effcurve = Myeff P-TCurve = MyPvsT Daily = MyIrrad TDaily = Mytemp 
New PVSystem.PV34 phases=2 Bus1=12675087b0f53190.3.1.0 kV=0.22 kVA=38.29 Pmpp=38.29 conn=wye PF = 1 %cutin = 0.00005 %cutout = 0.00005 effcurve = Myeff P-TCurve = MyPvsT Daily = MyIrrad TDaily = Mytemp 
New PVSystem.PV35 phases=2 Bus1=12998984b1f58003.3.1.0 kV=0.22 kVA=39.59 Pmpp=39.59 conn=wye PF = 1 %cutin = 0.00005 %cutout = 0.00005 effcurve = Myeff P-TCurve = MyPvsT Daily = MyIrrad TDaily = Mytemp 
New PVSystem.PV36 phases=3 Bus1=694709m3009.1.2.3.0 kV=11.9 kVA=195.89 Pmpp=195.89 conn=wye PF = 1 %cutin = 0.00005 %cutout = 0.00005 effcurve = Myeff P-TCurve = MyPvsT Daily = MyIrrad TDaily = Mytemp 
New PVSystem.PV37 phases=2 Bus1=12428741b1f23062.2.3.0 kV=0.22 kVA=35.94 Pmpp=35.94 conn=wye PF = 1 %cutin = 0.00005 %cutout = 0.00005 effcurve = Myeff P-TCurve = MyPvsT Daily = MyIrrad TDaily = Mytemp 
New PVSystem.PV38 phases=2 Bus1=107224b1f26939.1.2.0 kV=0.22 kVA=22.91 Pmpp=22.91 conn=wye PF = 1 %cutin = 0.00005 %cutout = 0.00005 effcurve = Myeff P-TCurve = MyPvsT Daily = MyIrrad TDaily = Mytemp 
New PVSystem.PV39 phases=2 Bus1=12428741b1f23062.2.3.0 kV=0.22 kVA=26.32 Pmpp=26.32 conn=wye PF = 1 %cutin = 0.00005 %cutout = 0.00005 effcurve = Myeff P-TCurve = MyPvsT Daily = MyIrrad TDaily = Mytemp 
New PVSystem.PV40 phases=2 Bus1=12428741b1f23062.3.1.0 kV=0.22 kVA=35.94 Pmpp=35.94 conn=wye PF = 1 %cutin = 0.00005 %cutout = 0.00005 effcurve = Myeff P-TCurve = MyPvsT Daily = MyIrrad TDaily = Mytemp 
New PVSystem.PV41 phases=3 Bus1=107036b1f16826.1.2.3.0 kV=0.22 kVA=78.31 Pmpp=78.31 conn=wye PF = 1 %cutin = 0.00005 %cutout = 0.00005 effcurve = Myeff P-TCurve = MyPvsT Daily = MyIrrad TDaily = Mytemp 
New PVSystem.PV42 phases=1 Bus1=600471b0f24167.1.0 kV=0.22 kVA=18.2 Pmpp=18.2 conn=wye PF = 1 %cutin = 0.00005 %cutout = 0.00005 effcurve = Myeff P-TCurve = MyPvsT Daily = MyIrrad TDaily = Mytemp 
New PVSystem.PV43 phases=1 Bus1=107002b1f21267.1.0 kV=0.127 kVA=8.67 Pmpp=8.67 conn=wye PF = 1 %cutin = 0.00005 %cutout = 0.00005 effcurve = Myeff P-TCurve = MyPvsT Daily = MyIrrad TDaily = Mytemp 
New PVSystem.PV44 phases=2 Bus1=107090b1f16098.2.3.0 kV=0.22 kVA=49.28 Pmpp=49.28 conn=wye PF = 1 %cutin = 0.00005 %cutout = 0.00005 effcurve = Myeff P-TCurve = MyPvsT Daily = MyIrrad TDaily = Mytemp 
New PVSystem.PV45 phases=1 Bus1=106980b1f19790.2.0 kV=0.127 kVA=9.62 Pmpp=9.62 conn=wye PF = 1 %cutin = 0.00005 %cutout = 0.00005 effcurve = Myeff P-TCurve = MyPvsT Daily = MyIrrad TDaily = Mytemp 
New PVSystem.PV46 phases=1 Bus1=106840b1f18466.1.0 kV=0.127 kVA=8.59 Pmpp=8.59 conn=wye PF = 1 %cutin = 0.00005 %cutout = 0.00005 effcurve = Myeff P-TCurve = MyPvsT Daily = MyIrrad TDaily = Mytemp 
New PVSystem.PV47 phases=1 Bus1=106840b1f18466.1.0 kV=0.127 kVA=6.8 Pmpp=6.8 conn=wye PF = 1 %cutin = 0.00005 %cutout = 0.00005 effcurve = Myeff P-TCurve = MyPvsT Daily = MyIrrad TDaily = Mytemp 
New PVSystem.PV48 phases=1 Bus1=106825b1f21415.1.0 kV=0.127 kVA=9.24 Pmpp=9.24 conn=wye PF = 1 %cutin = 0.00005 %cutout = 0.00005 effcurve = Myeff P-TCurve = MyPvsT Daily = MyIrrad TDaily = Mytemp 
New PVSystem.PV49 phases=2 Bus1=12533879b0f51609.1.2.0 kV=0.22 kVA=32.55 Pmpp=32.55 conn=wye PF = 1 %cutin = 0.00005 %cutout = 0.00005 effcurve = Myeff P-TCurve = MyPvsT Daily = MyIrrad TDaily = Mytemp 
New PVSystem.PV50 phases=2 Bus1=12428741b1f23062.2.3.0 kV=0.22 kVA=35.94 Pmpp=35.94 conn=wye PF = 1 %cutin = 0.00005 %cutout = 0.00005 effcurve = Myeff P-TCurve = MyPvsT Daily = MyIrrad TDaily = Mytemp 
New PVSystem.PV51 phases=2 Bus1=12428741b1f23062.3.1.0 kV=0.22 kVA=35.94 Pmpp=35.94 conn=wye PF = 1 %cutin = 0.00005 %cutout = 0.00005 effcurve = Myeff P-TCurve = MyPvsT Daily = MyIrrad TDaily = Mytemp 
New PVSystem.PV52 phases=1 Bus1=106933b1f26045.3.0 kV=0.127 kVA=2.92 Pmpp=2.92 conn=wye PF = 1 %cutin = 0.00005 %cutout = 0.00005 effcurve = Myeff P-TCurve = MyPvsT Daily = MyIrrad TDaily = Mytemp 
New PVSystem.PV53 phases=2 Bus1=12998983b1f58005.3.1.0 kV=0.22 kVA=37.46 Pmpp=37.46 conn=wye PF = 1 %cutin = 0.00005 %cutout = 0.00005 effcurve = Myeff P-TCurve = MyPvsT Daily = MyIrrad TDaily = Mytemp 
New PVSystem.PV54 phases=2 Bus1=12998984b1f58003.2.3.0 kV=0.22 kVA=37.46 Pmpp=37.46 conn=wye PF = 1 %cutin = 0.00005 %cutout = 0.00005 effcurve = Myeff P-TCurve = MyPvsT Daily = MyIrrad TDaily = Mytemp 
New PVSystem.PV55 phases=2 Bus1=107090b1f16098.3.1.0 kV=0.22 kVA=35.0 Pmpp=35.0 conn=wye PF = 1 %cutin = 0.00005 %cutout = 0.00005 effcurve = Myeff P-TCurve = MyPvsT Daily = MyIrrad TDaily = Mytemp 
New PVSystem.PV56 phases=3 Bus1=106977b1500594.1.2.3.0 kV=0.22 kVA=26.34 Pmpp=26.34 conn=wye PF = 1 %cutin = 0.00005 %cutout = 0.00005 effcurve = Myeff P-TCurve = MyPvsT Daily = MyIrrad TDaily = Mytemp 
New PVSystem.PV57 phases=1 Bus1=107069b1f21940.1.0 kV=0.22 kVA=18.63 Pmpp=18.63 conn=wye PF = 1 %cutin = 0.00005 %cutout = 0.00005 effcurve = Myeff P-TCurve = MyPvsT Daily = MyIrrad TDaily = Mytemp 
New PVSystem.PV58 phases=1 Bus1=107071b1f13822.3.0 kV=0.127 kVA=5.48 Pmpp=5.48 conn=wye PF = 1 %cutin = 0.00005 %cutout = 0.00005 effcurve = Myeff P-TCurve = MyPvsT Daily = MyIrrad TDaily = Mytemp 
New PVSystem.PV59 phases=2 Bus1=12232201b0f48507.1.2.0 kV=0.22 kVA=31.69 Pmpp=31.69 conn=wye PF = 1 %cutin = 0.00005 %cutout = 0.00005 effcurve = Myeff P-TCurve = MyPvsT Daily = MyIrrad TDaily = Mytemp 
New PVSystem.PV60 phases=3 Bus1=107021b1f38600.1.2.3.0 kV=0.22 kVA=41.06 Pmpp=41.06 conn=wye PF = 1 %cutin = 0.00005 %cutout = 0.00005 effcurve = Myeff P-TCurve = MyPvsT Daily = MyIrrad TDaily = Mytemp 
New PVSystem.PV61 phases=1 Bus1=107071b1f13822.1.0 kV=0.127 kVA=13.04 Pmpp=13.04 conn=wye PF = 1 %cutin = 0.00005 %cutout = 0.00005 effcurve = Myeff P-TCurve = MyPvsT Daily = MyIrrad TDaily = Mytemp 
New PVSystem.PV62 phases=1 Bus1=600471b0f24167.1.0 kV=0.22 kVA=30.11 Pmpp=30.11 conn=wye PF = 1 %cutin = 0.00005 %cutout = 0.00005 effcurve = Myeff P-TCurve = MyPvsT Daily = MyIrrad TDaily = Mytemp 
New PVSystem.PV63 phases=1 Bus1=106888b1f23277.2.0 kV=0.127 kVA=7.31 Pmpp=7.31 conn=wye PF = 1 %cutin = 0.00005 %cutout = 0.00005 effcurve = Myeff P-TCurve = MyPvsT Daily = MyIrrad TDaily = Mytemp 
New PVSystem.PV64 phases=1 Bus1=106840b1f18466.2.0 kV=0.127 kVA=2.74 Pmpp=2.74 conn=wye PF = 1 %cutin = 0.00005 %cutout = 0.00005 effcurve = Myeff P-TCurve = MyPvsT Daily = MyIrrad TDaily = Mytemp 
New PVSystem.PV65 phases=2 Bus1=600471b0f24167.1.2.0 kV=0.22 kVA=25.95 Pmpp=25.95 conn=wye PF = 1 %cutin = 0.00005 %cutout = 0.00005 effcurve = Myeff P-TCurve = MyPvsT Daily = MyIrrad TDaily = Mytemp 
New PVSystem.PV66 phases=2 Bus1=12998984b1f58003.1.2.0 kV=0.22 kVA=31.14 Pmpp=31.14 conn=wye PF = 1 %cutin = 0.00005 %cutout = 0.00005 effcurve = Myeff P-TCurve = MyPvsT Daily = MyIrrad TDaily = Mytemp 
New PVSystem.PV67 phases=2 Bus1=106840b1f18466.2.3.0 kV=0.22 kVA=26.39 Pmpp=26.39 conn=wye PF = 1 %cutin = 0.00005 %cutout = 0.00005 effcurve = Myeff P-TCurve = MyPvsT Daily = MyIrrad TDaily = Mytemp 
New PVSystem.PV68 phases=2 Bus1=12232201b0f48507.2.3.0 kV=0.22 kVA=26.59 Pmpp=26.59 conn=wye PF = 1 %cutin = 0.00005 %cutout = 0.00005 effcurve = Myeff P-TCurve = MyPvsT Daily = MyIrrad TDaily = Mytemp 
New PVSystem.PV69 phases=1 Bus1=107003b1f21555.2.0 kV=0.127 kVA=8.21 Pmpp=8.21 conn=wye PF = 1 %cutin = 0.00005 %cutout = 0.00005 effcurve = Myeff P-TCurve = MyPvsT Daily = MyIrrad TDaily = Mytemp 
New PVSystem.PV70 phases=1 Bus1=600471b0f24167.1.0 kV=0.22 kVA=41.06 Pmpp=41.06 conn=wye PF = 1 %cutin = 0.00005 %cutout = 0.00005 effcurve = Myeff P-TCurve = MyPvsT Daily = MyIrrad TDaily = Mytemp 
New PVSystem.PV71 phases=2 Bus1=107224b1f26939.1.2.0 kV=0.22 kVA=36.57 Pmpp=36.57 conn=wye PF = 1 %cutin = 0.00005 %cutout = 0.00005 effcurve = Myeff P-TCurve = MyPvsT Daily = MyIrrad TDaily = Mytemp 
New PVSystem.PV72 phases=2 Bus1=107036b1f16826.2.3.0 kV=0.22 kVA=41.06 Pmpp=41.06 conn=wye PF = 1 %cutin = 0.00005 %cutout = 0.00005 effcurve = Myeff P-TCurve = MyPvsT Daily = MyIrrad TDaily = Mytemp 
New PVSystem.PV73 phases=3 Bus1=107003b1f21555.1.2.3.0 kV=0.22 kVA=31.11 Pmpp=31.11 conn=wye PF = 1 %cutin = 0.00005 %cutout = 0.00005 effcurve = Myeff P-TCurve = MyPvsT Daily = MyIrrad TDaily = Mytemp 
New PVSystem.PV74 phases=2 Bus1=12428741b1f23062.1.2.0 kV=0.22 kVA=35.94 Pmpp=35.94 conn=wye PF = 1 %cutin = 0.00005 %cutout = 0.00005 effcurve = Myeff P-TCurve = MyPvsT Daily = MyIrrad TDaily = Mytemp 
New PVSystem.PV75 phases=2 Bus1=12232201b0f48507.2.3.0 kV=0.22 kVA=30.47 Pmpp=30.47 conn=wye PF = 1 %cutin = 0.00005 %cutout = 0.00005 effcurve = Myeff P-TCurve = MyPvsT Daily = MyIrrad TDaily = Mytemp 
New PVSystem.PV76 phases=2 Bus1=12232201b0f48507.1.2.0 kV=0.22 kVA=36.57 Pmpp=36.57 conn=wye PF = 1 %cutin = 0.00005 %cutout = 0.00005 effcurve = Myeff P-TCurve = MyPvsT Daily = MyIrrad TDaily = Mytemp 
New PVSystem.PV77 phases=1 Bus1=107002b1f21267.1.0 kV=0.127 kVA=6.51 Pmpp=6.51 conn=wye PF = 1 %cutin = 0.00005 %cutout = 0.00005 effcurve = Myeff P-TCurve = MyPvsT Daily = MyIrrad TDaily = Mytemp 
New PVSystem.PV78 phases=2 Bus1=12998984b1f58003.3.1.0 kV=0.22 kVA=17.16 Pmpp=17.16 conn=wye PF = 1 %cutin = 0.00005 %cutout = 0.00005 effcurve = Myeff P-TCurve = MyPvsT Daily = MyIrrad TDaily = Mytemp 
New PVSystem.PV79 phases=1 Bus1=106933b1f26045.3.0 kV=0.22 kVA=30.19 Pmpp=30.19 conn=wye PF = 1 %cutin = 0.00005 %cutout = 0.00005 effcurve = Myeff P-TCurve = MyPvsT Daily = MyIrrad TDaily = Mytemp 
New PVSystem.PV80 phases=2 Bus1=12232201b0f48507.2.3.0 kV=0.22 kVA=36.57 Pmpp=36.57 conn=wye PF = 1 %cutin = 0.00005 %cutout = 0.00005 effcurve = Myeff P-TCurve = MyPvsT Daily = MyIrrad TDaily = Mytemp 
New PVSystem.PV81 phases=1 Bus1=600471b0f24167.1.0 kV=0.22 kVA=30.11 Pmpp=30.11 conn=wye PF = 1 %cutin = 0.00005 %cutout = 0.00005 effcurve = Myeff P-TCurve = MyPvsT Daily = MyIrrad TDaily = Mytemp 
New PVSystem.PV82 phases=2 Bus1=12232201b0f48507.2.3.0 kV=0.22 kVA=31.03 Pmpp=31.03 conn=wye PF = 1 %cutin = 0.00005 %cutout = 0.00005 effcurve = Myeff P-TCurve = MyPvsT Daily = MyIrrad TDaily = Mytemp 
New PVSystem.PV83 phases=1 Bus1=106792b1f15272.3.0 kV=0.127 kVA=6.06 Pmpp=6.06 conn=wye PF = 1 %cutin = 0.00005 %cutout = 0.00005 effcurve = Myeff P-TCurve = MyPvsT Daily = MyIrrad TDaily = Mytemp 
New PVSystem.PV84 phases=2 Bus1=12428741b1f23062.3.1.0 kV=0.22 kVA=26.32 Pmpp=26.32 conn=wye PF = 1 %cutin = 0.00005 %cutout = 0.00005 effcurve = Myeff P-TCurve = MyPvsT Daily = MyIrrad TDaily = Mytemp 
New PVSystem.PV85 phases=3 Bus1=12675087b0f53190.1.2.3.0 kV=0.22 kVA=54.84 Pmpp=54.84 conn=wye PF = 1 %cutin = 0.00005 %cutout = 0.00005 effcurve = Myeff P-TCurve = MyPvsT Daily = MyIrrad TDaily = Mytemp 
New PVSystem.PV86 phases=2 Bus1=12232201b0f48507.2.3.0 kV=0.22 kVA=30.47 Pmpp=30.47 conn=wye PF = 1 %cutin = 0.00005 %cutout = 0.00005 effcurve = Myeff P-TCurve = MyPvsT Daily = MyIrrad TDaily = Mytemp 
New PVSystem.PV87 phases=3 Bus1=12428741b1f23062.1.2.3.0 kV=0.22 kVA=58.22 Pmpp=58.22 conn=wye PF = 1 %cutin = 0.00005 %cutout = 0.00005 effcurve = Myeff P-TCurve = MyPvsT Daily = MyIrrad TDaily = Mytemp 
New PVSystem.PV88 phases=1 Bus1=103375b1f18046.1.0 kV=0.22 kVA=24.87 Pmpp=24.87 conn=wye PF = 1 %cutin = 0.00005 %cutout = 0.00005 effcurve = Myeff P-TCurve = MyPvsT Daily = MyIrrad TDaily = Mytemp 
New PVSystem.PV89 phases=1 Bus1=106792b1f15272.1.0 kV=0.127 kVA=9.83 Pmpp=9.83 conn=wye PF = 1 %cutin = 0.00005 %cutout = 0.00005 effcurve = Myeff P-TCurve = MyPvsT Daily = MyIrrad TDaily = Mytemp 
New PVSystem.PV90 phases=1 Bus1=106840b1f18466.1.0 kV=0.127 kVA=3.47 Pmpp=3.47 conn=wye PF = 1 %cutin = 0.00005 %cutout = 0.00005 effcurve = Myeff P-TCurve = MyPvsT Daily = MyIrrad TDaily = Mytemp 
New PVSystem.PV91 phases=2 Bus1=107090b1f16098.2.3.0 kV=0.22 kVA=31.14 Pmpp=31.14 conn=wye PF = 1 %cutin = 0.00005 %cutout = 0.00005 effcurve = Myeff P-TCurve = MyPvsT Daily = MyIrrad TDaily = Mytemp 
New PVSystem.PV92 phases=1 Bus1=600471b0f24167.2.0 kV=0.127 kVA=9.29 Pmpp=9.29 conn=wye PF = 1 %cutin = 0.00005 %cutout = 0.00005 effcurve = Myeff P-TCurve = MyPvsT Daily = MyIrrad TDaily = Mytemp 
New PVSystem.PV93 phases=1 Bus1=106825b1f21415.3.0 kV=0.127 kVA=5.48 Pmpp=5.48 conn=wye PF = 1 %cutin = 0.00005 %cutout = 0.00005 effcurve = Myeff P-TCurve = MyPvsT Daily = MyIrrad TDaily = Mytemp 
New PVSystem.PV94 phases=3 Bus1=107187m3009.1.2.3.0 kV=11.4 kVA=582.86 Pmpp=582.86 conn=wye PF = 1 %cutin = 0.00005 %cutout = 0.00005 effcurve = Myeff P-TCurve = MyPvsT Daily = MyIrrad TDaily = Mytemp 
New PVSystem.PV95 phases=3 Bus1=107132m3009.1.2.3.0 kV=11.9 kVA=81.12 Pmpp=81.12 conn=wye PF = 1 %cutin = 0.00005 %cutout = 0.00005 effcurve = Myeff P-TCurve = MyPvsT Daily = MyIrrad TDaily = Mytemp 
New PVSystem.PV96 phases=1 Bus1=106888b1f23277.1.0 kV=0.127 kVA=13.69 Pmpp=13.69 conn=wye PF = 1 %cutin = 0.00005 %cutout = 0.00005 effcurve = Myeff P-TCurve = MyPvsT Daily = MyIrrad TDaily = Mytemp 
New PVSystem.PV97 phases=2 Bus1=12675087b0f53190.1.2.0 kV=0.22 kVA=25.09 Pmpp=25.09 conn=wye PF = 1 %cutin = 0.00005 %cutout = 0.00005 effcurve = Myeff P-TCurve = MyPvsT Daily = MyIrrad TDaily = Mytemp 
New PVSystem.PV98 phases=2 Bus1=12232201b0f48507.1.2.0 kV=0.22 kVA=31.69 Pmpp=31.69 conn=wye PF = 1 %cutin = 0.00005 %cutout = 0.00005 effcurve = Myeff P-TCurve = MyPvsT Daily = MyIrrad TDaily = Mytemp 
New PVSystem.PV99 phases=1 Bus1=106825b1f21415.3.0 kV=0.127 kVA=8.36 Pmpp=8.36 conn=wye PF = 1 %cutin = 0.00005 %cutout = 0.00005 effcurve = Myeff P-TCurve = MyPvsT Daily = MyIrrad TDaily = Mytemp 
New PVSystem.PV100 phases=2 Bus1=12428741b1f23062.1.2.0 kV=0.22 kVA=35.94 Pmpp=35.94 conn=wye PF = 1 %cutin = 0.00005 %cutout = 0.00005 effcurve = Myeff P-TCurve = MyPvsT Daily = MyIrrad TDaily = Mytemp 
New PVSystem.PV101 phases=2 Bus1=107069b1f21940.3.1.0 kV=0.22 kVA=27.05 Pmpp=27.05 conn=wye PF = 1 %cutin = 0.00005 %cutout = 0.00005 effcurve = Myeff P-TCurve = MyPvsT Daily = MyIrrad TDaily = Mytemp 
New PVSystem.PV102 phases=3 Bus1=107224b1f26939.1.2.3.0 kV=0.22 kVA=23.22 Pmpp=23.22 conn=wye PF = 1 %cutin = 0.00005 %cutout = 0.00005 effcurve = Myeff P-TCurve = MyPvsT Daily = MyIrrad TDaily = Mytemp 
New PVSystem.PV103 phases=2 Bus1=12428741b1f23062.1.2.0 kV=0.22 kVA=35.37 Pmpp=35.37 conn=wye PF = 1 %cutin = 0.00005 %cutout = 0.00005 effcurve = Myeff P-TCurve = MyPvsT Daily = MyIrrad TDaily = Mytemp 
New PVSystem.PV104 phases=3 Bus1=107003b1f21555.1.2.3.0 kV=0.22 kVA=66.04 Pmpp=66.04 conn=wye PF = 1 %cutin = 0.00005 %cutout = 0.00005 effcurve = Myeff P-TCurve = MyPvsT Daily = MyIrrad TDaily = Mytemp 
...